2024_89_CemigReconfigurationCases/1_AlimsCemig/SSP06/SSP06SegmentosMT.dss
new line.TR10254196 bus1=BMT6447751B.1.2.3,bus2=BMT6447758B.1.2.3,Phases=3,Linecode=CABA06_3_3,Length=0.032012000,Units=km
new line.TR10272921 bus1=BMT150342197.1.2.3,bus2=BMT150342198.1.2.3,Phases=3,Linecode=CAB601_5_3,Length=0.006403000,Units=km
new line.TR10272928 bus1=BMT150342198.1.2.3,bus2=BMT150342199.1.2.3,Phases=3,Linecode=CAB601_3_3,Length=0.006403000,Units=km
new line.TR10358468 bus1=BMT169743332.1.2.3,bus2=BMT6609899B.1.2.3,Phases=3,Linecode=CAB104_3_3,Length=0.017086000,Units=km
new line.TR10358475 bus1=BMT157732748.1.2.3,bus2=BMT6609899B.1.2.3,Phases=3,Linecode=CAB104_3_3,Length=0.014316000,Units=km
new line.TR10358580 bus1=BMT959948B.1.2.3,bus2=BMT6610207B.1.2.3,Phases=3,Linecode=CAB104_3_3,Length=0.021929000,Units=km
new line.TR10358587 bus1=BMT6610207B.1.2.3,bus2=BMT157732748.1.2.3,Phases=3,Linecode=CAB104_3_3,Length=0.018026000,Units=km
new line.TR10359245 bus1=BMT966101B.1,bus2=BMT6611348B.1,Phases=1,Linecode=CAB102_3_1,Length=0.025492000,Units=km
new line.TR10359252 bus1=BMT6611348B.1,bus2=BMT966115B.1,Phases=1,Linecode=CAB102_3_1,Length=0.024736000,Units=km
new line.TR10491657 bus1=BMT103182277.1.2.3,bus2=BMT956854B.1.2.3,Phases=3,Linecode=CABA06_3_3,Length=0.036887000,Units=km
new line.TR10491664 bus1=BMT956854B.1.2.3,bus2=BMT956840B.1.2.3,Phases=3,Linecode=CABA06_3_3,Length=0.034666000,Units=km
new line.TR10491671 bus1=BMT956840B.1.2.3,bus2=BMT103182284.1.2.3,Phases=3,Linecode=CABA06_3_3,Length=0.037731000,Units=km
new line.TR10924642 bus1=BMT945787B.1.2.3,bus2=BMT154995188.1.2.3,Phases=3,Linecode=CAB103_3_3,Length=0.014316000,Units=km
new line.TR11227525 bus1=BMT955370B.1.2.3,bus2=BMT7446840B.1.2.3,Phases=3,Linecode=CAB102_3_3,Length=0.019414000,Units=km
new line.TR11227532 bus1=BMT955363B.1.2.3,bus2=BMT7446840B.1.2.3,Phases=3,Linecode=CAB102_3_3,Length=0.018866000,Units=km
new line.TR11382295 bus1=BMT172511332.1.2.3,bus2=BMT172511331.1.2.3,Phases=3,Linecode=CAB202_3_3,Length=0.069042000,Units=km
new line.TR11382302 bus1=BMT154995188.1.2.3,bus2=BMT103183600.1.2.3,Phases=3,Linecode=CAB103_3_3,Length=0.037652000,Units=km
new line.TR11382379 bus1=BMT154995188.1.2.3,bus2=BMT154995191.1.2.3,Phases=3,Linecode=CABA06_3_3,Length=0.037572000,Units=km
new line.TR11474674 bus1=BMT103183285.1.2.3,bus2=BMT103183292.1.2.3,Phases=3,Linecode=CAB902_4_3,Length=0.008944000,Units=km
new line.TR11545507 bus1=BMT105242188.1.2.3,bus2=BMT948412B.1.2.3,Phases=3,Linecode=CABA06_3_3,Length=0.036396000,Units=km
new line.TR11545514 bus1=BMT948412B.1.2.3,bus2=BMT105242202.1.2.3,Phases=3,Linecode=CABA06_3_3,Length=0.033238000,Units=km
new line.TR11593387 bus1=BMT972002B.1.2.3,bus2=BMT164969747.1.2.3,Phases=3,Linecode=CABA08_3_3,Length=0.033597000,Units=km
new line.TR11618447 bus1=BMT6447758B.1.2.3,bus2=BMT161166703.1.2.3,Phases=3,Linecode=CABA06_3_3,Length=0.020122000,Units=km
new line.TR11618454 bus1=BMT6447765B.1.2.3,bus2=BMT161166703.1.2.3,Phases=3,Linecode=CABA06_3_3,Length=0.006708000,Units=km
new line.TR11618524 bus1=BMT6447765B.1.2.3,bus2=BMT7819149B.1.2.3,Phases=3,Linecode=CABA06_3_3,Length=0.025077000,Units=km
new line.TR11618601 bus1=BMT6447772B.1.2.3,bus2=BMT7819184B.1.2.3,Phases=3,Linecode=CABA06_3_3,Length=0.028632000,Units=km
new line.TR11618769 bus1=BMT6447772B.1.2.3,bus2=BMT161166704.1.2.3,Phases=3,Linecode=CABA06_3_3,Length=0.006708000,Units=km
new line.TR11618776 bus1=BMT7819149B.1.2.3,bus2=BMT161166704.1.2.3,Phases=3,Linecode=CABA06_3_3,Length=0.018786000,Units=km
new line.TR11619161 bus1=BMT7819184B.1.2.3,bus2=BMT7819702B.1.2.3,Phases=3,Linecode=CABA06_3_3,Length=0.009848000,Units=km
new line.TR11619168 bus1=BMT7819702B.1.2.3,bus2=BMT6447779B.1.2.3,Phases=3,Linecode=CABA06_3_3,Length=0.028632000,Units=km
new line.TR11620400 bus1=BMT6447779B.1.2.3,bus2=BMT7819219B.1.2.3,Phases=3,Linecode=CABA06_3_3,Length=0.039391000,Units=km
new line.TR11620421 bus1=BMT161166706.1.2.3,bus2=BMT7820059B.1.2.3,Phases=3,Linecode=CABA06_3_3,Length=0.033283000,Units=km
new line.TR11620428 bus1=BMT7820059B.1.2.3,bus2=BMT7820066B.1.2.3,Phases=3,Linecode=CABA06_3_3,Length=0.029963000,Units=km
new line.TR11620435 bus1=BMT7820066B.1.2.3,bus2=BMT7820073B.1.2.3,Phases=3,Linecode=CABA06_3_3,Length=0.029963000,Units=km
new line.TR11620442 bus1=BMT7820073B.1.2.3,bus2=BMT7820080B.1.2.3,Phases=3,Linecode=CABA06_3_3,Length=0.036245000,Units=km
new line.TR11620449 bus1=BMT7820080B.1.2.3,bus2=BMT7820416B.1.2.3,Phases=3,Linecode=CABA06_3_3,Length=0.016123000,Units=km
new line.TR11620456 bus1=BMT7820416B.1.2.3,bus2=BMT161166708.1.2.3,Phases=3,Linecode=CABA06_3_3,Length=0.031237000,Units=km
new line.TR11620463 bus1=BMT161166706.1.2.3,bus2=BMT161166709.1.2.3,Phases=3,Linecode=CABA06_3_3,Length=0.027310000,Units=km
new line.TR11620484 bus1=BMT7819702B.1.2.3,bus2=BMT7819954B.1.2.3,Phases=3,Linecode=CABA06_3_3,Length=0.010769000,Units=km
new line.TR11620491 bus1=BMT7819702B.1.2.3,bus2=BMT7819709B.1.2.3,Phases=3,Linecode=CABA06_3_3,Length=0.011179000,Units=km
new line.TR11620512 bus1=BMT7819709B.1.2.3,bus2=BMT7819723B.1.2.3,Phases=3,Linecode=CABA06_3_3,Length=0.038074000,Units=km
new line.TR11620519 bus1=BMT161166704.1.2.3,bus2=BMT7819639B.1.2.3,Phases=3,Linecode=CABA06_3_3,Length=0.020122000,Units=km
new line.TR11620526 bus1=BMT161166704.1.2.3,bus2=BMT161166707.1.2.3,Phases=3,Linecode=CABA06_3_3,Length=0.011704000,Units=km
new line.TR11620533 bus1=BMT161166703.1.2.3,bus2=BMT7819107B.1.2.3,Phases=3,Linecode=CABA06_3_3,Length=0.022845000,Units=km
new line.TR11620540 bus1=BMT161166703.1.2.3,bus2=BMT161166705.1.2.3,Phases=3,Linecode=CABA06_3_3,Length=0.011704000,Units=km
new line.TR11621863 bus1=BMT7819219B.1.2.3,bus2=BMT7819996B.1.2.3,Phases=3,Linecode=CABA06_3_3,Length=0.009848000,Units=km
new line.TR11621870 bus1=BMT7819996B.1.2.3,bus2=BMT161166706.1.2.3,Phases=3,Linecode=CABA06_3_3,Length=0.028632000,Units=km
new line.TR11644340 bus1=BMT164969746.1.2.3,bus2=BMT972002B.1.2.3,Phases=3,Linecode=CABA08_3_3,Length=0.027200000,Units=km
new line.TR11686186 bus1=BMT113436577.1.2.3,bus2=BMT945024B.1.2.3,Phases=3,Linecode=CABA06_3_3,Length=0.020516000,Units=km
new line.TR11686193 bus1=BMT113436577.1.2.3,bus2=BMT944996B.1.2.3,Phases=3,Linecode=CABA06_3_3,Length=0.009219000,Units=km
new line.TR11686200 bus1=BMT944996B.1.2.3,bus2=BMT113436598.1.2.3,Phases=3,Linecode=CABA06_3_3,Length=0.036792000,Units=km
new line.TR11686242 bus1=BMT113436570.1.2.3,bus2=BMT945080B.1.2.3,Phases=3,Linecode=CABA06_3_3,Length=0.024080000,Units=km
new line.TR11686249 bus1=BMT113436570.1.2.3,bus2=BMT945052B.1.2.3,Phases=3,Linecode=CABA06_3_3,Length=0.008485000,Units=km
new line.TR11686256 bus1=BMT945052B.1.2.3,bus2=BMT113436584.1.2.3,Phases=3,Linecode=CABA06_3_3,Length=0.028997000,Units=km
new line.TR11728396 bus1=BMT119894056.3,bus2=BMT959045B.3,Phases=1,Linecode=CABA06_3_1,Length=0.008246000,Units=km
new line.TR11728403 bus1=BMT959045B.3,bus2=BMT959024B.3,Phases=1,Linecode=CABA06_3_1,Length=0.026830000,Units=km
new line.TR11728410 bus1=BMT959024B.3,bus2=BMT119894070.3,Phases=1,Linecode=CABA06_3_1,Length=0.025939000,Units=km
new line.TR11892147 bus1=BMT128243453.1.2.3,bus2=BMT945899B.1.2.3,Phases=3,Linecode=CABA06_3_3,Length=0.030607000,Units=km
new line.TR11893365 bus1=BMT945899B.1.2.3,bus2=BMT127845132.1.2.3,Phases=3,Linecode=CABA06_3_3,Length=0.006082000,Units=km
new line.TR11893372 bus1=BMT152618803.1.2.3,bus2=BMT8046096B.1.2.3,Phases=3,Linecode=CABA06_3_3,Length=0.029271000,Units=km
new line.TR11893379 bus1=BMT8046096B.1.2.3,bus2=BMT8046124B.1.2.3,Phases=3,Linecode=CABA06_3_3,Length=0.030262000,Units=km
new line.TR11893393 bus1=BMT8046124B.1.2.3,bus2=BMT8046138B.1.2.3,Phases=3,Linecode=CABA06_3_3,Length=0.036217000,Units=km
new line.TR11893414 bus1=BMT8046138B.1.2.3,bus2=BMT152618804.1.2.3,Phases=3,Linecode=CABA06_3_3,Length=0.035506000,Units=km
new line.TR11893421 bus1=BMT152618804.1.2.3,bus2=BMT8046236B.1.2.3,Phases=3,Linecode=CABA06_3_3,Length=0.035351000,Units=km
new line.TR11893428 bus1=BMT8046236B.1.2.3,bus2=BMT8046250B.1.2.3,Phases=3,Linecode=CABA06_3_3,Length=0.035351000,Units=km
new line.TR11893435 bus1=BMT8046250B.1.2.3,bus2=BMT152618805.1.2.3,Phases=3,Linecode=CABA06_3_3,Length=0.032981000,Units=km
new line.TR11893442 bus1=BMT152618804.1.2.3,bus2=BMT8046551B.1.2.3,Phases=3,Linecode=CABA06_3_3,Length=0.032199000,Units=km
new line.TR11893449 bus1=BMT8046551B.1.2.3,bus2=BMT8046558B.1.2.3,Phases=3,Linecode=CABA06_3_3,Length=0.034405000,Units=km
new line.TR11893456 bus1=BMT8046558B.1.2.3,bus2=BMT8046565B.1.2.3,Phases=3,Linecode=CABA06_3_3,Length=0.035223000,Units=km
new line.TR11893463 bus1=BMT8046565B.1.2.3,bus2=BMT8046579B.1.2.3,Phases=3,Linecode=CABA06_3_3,Length=0.034666000,Units=km
new line.TR11893470 bus1=BMT8046579B.1.2.3,bus2=BMT8046453B.1.2.3,Phases=3,Linecode=CABA06_3_3,Length=0.008062000,Units=km
new line.TR11893477 bus1=BMT8046453B.1.2.3,bus2=BMT152618806.1.2.3,Phases=3,Linecode=CABA06_3_3,Length=0.029151000,Units=km
new line.TR11927581 bus1=BMT156513252.1.2.3,bus2=BMT964820B.1.2.3,Phases=3,Linecode=CAB902_4_3,Length=0.036051000,Units=km
new line.TR11927588 bus1=BMT964820B.1.2.3,bus2=BMT964813B.1.2.3,Phases=3,Linecode=CAB902_4_3,Length=0.036996000,Units=km
new line.TR11927595 bus1=BMT964813B.1.2.3,bus2=BMT3654934B.1.2.3,Phases=3,Linecode=CAB902_4_3,Length=0.037332000,Units=km
new line.TR11927602 bus1=BMT3654934B.1.2.3,bus2=BMT966472B.1.2.3,Phases=3,Linecode=CAB902_4_3,Length=0.016491000,Units=km
new line.TR11927714 bus1=BMT966472B.1.2.3,bus2=BMT156513254.1.2.3,Phases=3,Linecode=CAB902_4_3,Length=0.016642000,Units=km
new line.TR11933034 bus1=BMT162010469.1.2.3,bus2=BMT164270097.1.2.3,Phases=3,Linecode=CABA06_3_3,Length=0.034128000,Units=km
new line.TR11934630 bus1=BMT955902B.1.2.3,bus2=BMT8083343B.1.2.3,Phases=3,Linecode=CAB102_3_3,Length=0.005000000,Units=km
new line.TR11934637 bus1=BMT8083343B.1.2.3,bus2=BMT137744588.1.2.3,Phases=3,Linecode=CAB102_3_3,Length=0.036670000,Units=km
new line.TR12130341 bus1=BMT165087152.1.2.3,bus2=BMT6610032B.1.2.3,Phases=3,Linecode=CABA06_3_3,Length=0.021631000,Units=km
new line.TR12130344 bus1=BMT6610032B.1.2.3,bus2=BMT165087153.1.2.3,Phases=3,Linecode=CABA06_3_3,Length=0.034362000,Units=km
new line.TR12130346 bus1=BMT165087153.1.2.3,bus2=BMT6610424B.1.2.3,Phases=3,Linecode=CABA06_3_3,Length=0.035224000,Units=km
new line.TR12130351 bus1=BMT6610424B.1.2.3,bus2=BMT6611005B.1.2.3,Phases=3,Linecode=CABA06_3_3,Length=0.035224000,Units=km
new line.TR12130352 bus1=BMT6611005B.1.2.3,bus2=BMT6611026B.1.2.3,Phases=3,Linecode=CABA06_3_3,Length=0.036121000,Units=km
new line.TR12130353 bus1=BMT6611026B.1.2.3,bus2=BMT6611033B.1.2.3,Phases=3,Linecode=CABA06_3_3,Length=0.036010000,Units=km
new line.TR12130354 bus1=BMT6611033B.1.2.3,bus2=BMT6611040B.1.2.3,Phases=3,Linecode=CABA06_3_3,Length=0.035010000,Units=km
new line.TR12130357 bus1=BMT6611040B.1.2.3,bus2=BMT8724092B.1.2.3,Phases=3,Linecode=CABA06_3_3,Length=0.028068000,Units=km
new line.TR12130372 bus1=BMT8724092B.1.2.3,bus2=BMT165087154.1.2.3,Phases=3,Linecode=CABA06_3_3,Length=0.022998000,Units=km
new line.TR12171175 bus1=BMT156639047.1.2.3,bus2=BMT156639048.1.2.3,Phases=3,Linecode=CAB601_3_3,Length=0.005099000,Units=km
new line.TR12171178 bus1=BMT156639048.1.2.3,bus2=BMT156639049.1.2.3,Phases=3,Linecode=CAB601_3_3,Length=0.015131000,Units=km
new line.TR12171183 bus1=BMT156639049.1.2.3,bus2=BMT156639050.1.2.3,Phases=3,Linecode=CAB601_3_3,Length=0.006000000,Units=km
new line.TR12181760 bus1=BMT162325220.1.2.3,bus2=BMT150669823.1.2.3,Phases=3,Linecode=CABA06_3_3,Length=0.034128000,Units=km
new line.TR12181771 bus1=BMT162325230.1.2.3,bus2=BMT3803117B.1.2.3,Phases=3,Linecode=CABA06_3_3,Length=0.041432000,Units=km
new line.TR12181772 bus1=BMT3803117B.1.2.3,bus2=BMT7924618B.1.2.3,Phases=3,Linecode=CABA06_3_3,Length=0.035689000,Units=km
new line.TR12181773 bus1=BMT7924618B.1.2.3,bus2=BMT162325231.1.2.3,Phases=3,Linecode=CABA06_3_3,Length=0.032554000,Units=km
new line.TR12181774 bus1=BMT162325231.1.2.3,bus2=BMT8780496B.1.2.3,Phases=3,Linecode=CABA06_3_3,Length=0.030591000,Units=km
new line.TR12181775 bus1=BMT8780496B.1.2.3,bus2=BMT8780562B.1.2.3,Phases=3,Linecode=CABA06_3_3,Length=0.030591000,Units=km
new line.TR12181776 bus1=BMT8780562B.1.2.3,bus2=BMT8780563B.1.2.3,Phases=3,Linecode=CABA06_3_3,Length=0.009899000,Units=km
new line.TR12181777 bus1=BMT8780563B.1.2.3,bus2=BMT8780622B.1.2.3,Phases=3,Linecode=CABA06_3_3,Length=0.020023000,Units=km
new line.TR12181778 bus1=BMT8780622B.1.2.3,bus2=BMT8780565B.1.2.3,Phases=3,Linecode=CABA06_3_3,Length=0.027997000,Units=km
new line.TR12181779 bus1=BMT8780565B.1.2.3,bus2=BMT8780570B.1.2.3,Phases=3,Linecode=CABA06_3_3,Length=0.027071000,Units=km
new line.TR12181780 bus1=BMT8780570B.1.2.3,bus2=BMT162325232.1.2.3,Phases=3,Linecode=CABA06_3_3,Length=0.033298000,Units=km
new line.TR12181785 bus1=BMT162325232.1.2.3,bus2=BMT8780573B.1.2.3,Phases=3,Linecode=CABA06_3_3,Length=0.033612000,Units=km
new line.TR12181786 bus1=BMT8780573B.1.2.3,bus2=BMT8780576B.1.2.3,Phases=3,Linecode=CABA06_3_3,Length=0.030229000,Units=km
new line.TR12181787 bus1=BMT8780576B.1.2.3,bus2=BMT8780578B.1.2.3,Phases=3,Linecode=CABA06_3_3,Length=0.033238000,Units=km
new line.TR12181788 bus1=BMT8780578B.1.2.3,bus2=BMT162325233.1.2.3,Phases=3,Linecode=CABA06_3_3,Length=0.032059000,Units=km
new line.TR12228962 bus1=BMT962867B.1.2.3,bus2=BMT8829987B.1.2.3,Phases=3,Linecode=CAB102_3_3,Length=0.016154000,Units=km
new line.TR12228963 bus1=BMT962853B.1.2.3,bus2=BMT8829987B.1.2.3,Phases=3,Linecode=CAB102_3_3,Length=0.015230000,Units=km
new line.TR12381142 bus1=BMT170541236.1.2.3,bus2=BMT956231B.1.2.3,Phases=3,Linecode=CABA06_3_3,Length=0.041105000,Units=km
new line.TR12381146 bus1=BMT956231B.1.2.3,bus2=BMT170541237.1.2.3,Phases=3,Linecode=CABA06_3_3,Length=0.038893000,Units=km
new line.TR12384482 bus1=BMT165087153.1.2.3,bus2=BMT8990298B.1.2.3,Phases=3,Linecode=CABA06_3_3,Length=0.021211000,Units=km
new line.TR12384493 bus1=BMT8990298B.1.2.3,bus2=BMT8990301B.1.2.3,Phases=3,Linecode=CABA06_3_3,Length=0.040008000,Units=km
new line.TR12384494 bus1=BMT8990301B.1.2.3,bus2=BMT8990302B.1.2.3,Phases=3,Linecode=CABA06_3_3,Length=0.041007000,Units=km
new line.TR12384495 bus1=BMT8990302B.1.2.3,bus2=BMT8990304B.1.2.3,Phases=3,Linecode=CABA06_3_3,Length=0.026997000,Units=km
new line.TR12384496 bus1=BMT8990304B.1.2.3,bus2=BMT165087155.1.2.3,Phases=3,Linecode=CABA06_3_3,Length=0.028858000,Units=km
new line.TR12384497 bus1=BMT165087155.1.2.3,bus2=BMT8990306B.1.2.3,Phases=3,Linecode=CABA06_3_3,Length=0.028015000,Units=km
new line.TR12384498 bus1=BMT8990306B.1.2.3,bus2=BMT8990307B.1.2.3,Phases=3,Linecode=CABA06_3_3,Length=0.029611000,Units=km
new line.TR12384499 bus1=BMT8990307B.1.2.3,bus2=BMT165087156.1.2.3,Phases=3,Linecode=CABA06_3_3,Length=0.024997000,Units=km
new line.TR12415654 bus1=BMT162325226.1.2.3,bus2=BMT3803306B.1.2.3,Phases=3,Linecode=CABA06_3_3,Length=0.028068000,Units=km
new line.TR12415656 bus1=BMT3803306B.1.2.3,bus2=BMT3803166B.1.2.3,Phases=3,Linecode=CABA06_3_3,Length=0.037732000,Units=km
new line.TR12415658 bus1=BMT3803166B.1.2.3,bus2=BMT162325227.1.2.3,Phases=3,Linecode=CABA06_3_3,Length=0.039807000,Units=km
new line.TR12417953 bus1=BMT164969735.1.2.3,bus2=BMT9024056B.1.2.3,Phases=3,Linecode=CABA06_3_3,Length=0.005385000,Units=km
new line.TR12418089 bus1=BMT164969736.1.2.3,bus2=BMT9023991B.1.2.3,Phases=3,Linecode=CABA06_3_3,Length=0.036051000,Units=km
new line.TR12418091 bus1=BMT9024056B.1.2.3,bus2=BMT9024170B.1.2.3,Phases=3,Linecode=CABA06_3_3,Length=0.041178000,Units=km
new line.TR12418095 bus1=BMT9024170B.1.2.3,bus2=BMT9024171B.1.2.3,Phases=3,Linecode=CABA06_3_3,Length=0.033117000,Units=km
new line.TR12418096 bus1=BMT9024171B.1.2.3,bus2=BMT9024172B.1.2.3,Phases=3,Linecode=CABA06_3_3,Length=0.044289000,Units=km
new line.TR12418097 bus1=BMT9024172B.1.2.3,bus2=BMT164969737.1.2.3,Phases=3,Linecode=CABA06_3_3,Length=0.033612000,Units=km
new line.TR12418098 bus1=BMT9023991B.1.2.3,bus2=BMT9023992B.1.2.3,Phases=3,Linecode=CABA06_3_3,Length=0.036245000,Units=km
new line.TR12418099 bus1=BMT9023992B.1.2.3,bus2=BMT9023998B.1.2.3,Phases=3,Linecode=CABA06_3_3,Length=0.040714000,Units=km
new line.TR12418100 bus1=BMT9023998B.1.2.3,bus2=BMT9024008B.1.2.3,Phases=3,Linecode=CABA06_3_3,Length=0.035337000,Units=km
new line.TR12418101 bus1=BMT9024008B.1.2.3,bus2=BMT164969739.1.2.3,Phases=3,Linecode=CABA06_3_3,Length=0.036670000,Units=km
new line.TR12418437 bus1=BMT169978146.1.2.3,bus2=BMT957134B.1.2.3,Phases=3,Linecode=CABA08_3_3,Length=0.035506000,Units=km
new line.TR12418438 bus1=BMT957134B.1.2.3,bus2=BMT957120B.1.2.3,Phases=3,Linecode=CABA08_3_3,Length=0.017491000,Units=km
new line.TR12418439 bus1=BMT957120B.1.2.3,bus2=BMT957113B.1.2.3,Phases=3,Linecode=CABA08_3_3,Length=0.012205000,Units=km
new line.TR12418440 bus1=BMT957113B.1.2.3,bus2=BMT957099B.1.2.3,Phases=3,Linecode=CABA08_3_3,Length=0.028299000,Units=km
new line.TR12418441 bus1=BMT957099B.1.2.3,bus2=BMT957092B.1.2.3,Phases=3,Linecode=CABA08_3_3,Length=0.022470000,Units=km
new line.TR12418442 bus1=BMT957092B.1.2.3,bus2=BMT954432B.1.2.3,Phases=3,Linecode=CABA08_3_3,Length=0.033611000,Units=km
new line.TR12418451 bus1=BMT954432B.1.2.3,bus2=BMT158875689.1.2.3,Phases=3,Linecode=CABA08_3_3,Length=0.035224000,Units=km
new line.TR12418452 bus1=BMT161166710.1.2.3,bus2=BMT7819303B.1.2.3,Phases=3,Linecode=CABA08_3_3,Length=0.036887000,Units=km
new line.TR12418453 bus1=BMT7819303B.1.2.3,bus2=BMT7819289B.1.2.3,Phases=3,Linecode=CABA08_3_3,Length=0.011179000,Units=km
new line.TR12418454 bus1=BMT7819289B.1.2.3,bus2=BMT7819282B.1.2.3,Phases=3,Linecode=CABA08_3_3,Length=0.020122000,Units=km
new line.TR12418455 bus1=BMT7819282B.1.2.3,bus2=BMT7819268B.1.2.3,Phases=3,Linecode=CABA08_3_3,Length=0.026398000,Units=km
new line.TR12454005 bus1=BMT161166709.1.2.3,bus2=BMT7819268B.1.2.3,Phases=3,Linecode=CABA08_3_3,Length=0.029963000,Units=km
new line.TR12464694 bus1=BMT167106070.1.2.3,bus2=BMT167106071.1.2.3,Phases=3,Linecode=CAB108_3_3,Length=0.032646000,Units=km
new line.TR12464704 bus1=BMT989327D.1.2.3,bus2=BMT989320D.1.2.3,Phases=3,Linecode=CABA08_3_3,Length=0.038906000,Units=km
new line.TR12464705 bus1=BMT989320D.1.2.3,bus2=BMT989278D.1.2.3,Phases=3,Linecode=CABA08_3_3,Length=0.032692000,Units=km
new line.TR12464706 bus1=BMT989278D.1.2.3,bus2=BMT989264B.1.2.3,Phases=3,Linecode=CABA08_3_3,Length=0.023257000,Units=km
new line.TR12464711 bus1=BMT167106071.1.2.3,bus2=BMT989327D.1.2.3,Phases=3,Linecode=CABA08_3_3,Length=0.038906000,Units=km
new line.TR12491996 bus1=BMT162012193.1.2.3,bus2=BMT162012194.1.2.3,Phases=3,Linecode=CAB401_3_3,Length=0.004123000,Units=km
new line.TR12492002 bus1=BMT162012194.1.2.3,bus2=BMT162012195.1.2.3,Phases=3,Linecode=CAB401_5_3,Length=0.008602000,Units=km
new line.TR12492053 bus1=BMT162012195.1.2.3,bus2=BMT162012196.1.2.3,Phases=3,Linecode=CAB401_5_3,Length=0.005657000,Units=km
new line.TR12562404 bus1=BMT165087155.1.2.3,bus2=BMT165087157.1.2.3,Phases=3,Linecode=CABA06_3_3,Length=0.030262000,Units=km
new line.TR12590273 bus1=BMT166158552.1.2.3,bus2=BMT958534B.1.2.3,Phases=3,Linecode=CABA06_3_3,Length=0.023084000,Units=km
new line.TR12590282 bus1=BMT166158552.1.2.3,bus2=BMT958492B.1.2.3,Phases=3,Linecode=CABA06_3_3,Length=0.007615000,Units=km
new line.TR12590286 bus1=BMT958492B.1.2.3,bus2=BMT958457B.1.2.3,Phases=3,Linecode=CABA06_3_3,Length=0.032307000,Units=km
new line.TR12590292 bus1=BMT958457B.1.2.3,bus2=BMT166158554.1.2.3,Phases=3,Linecode=CABA06_3_3,Length=0.030080000,Units=km
new line.TR12620531 bus1=BMT2051367B.1.2.3,bus2=BMT167073104.1.2.3,Phases=3,Linecode=CABA06_3_3,Length=0.040157000,Units=km
new line.TR12620532 bus1=BMT167073104.1.2.3,bus2=BMT2051374B.1.2.3,Phases=3,Linecode=CAB102_3_3,Length=0.139244000,Units=km
new line.TR12644283 bus1=BMT168112683.1.2.3,bus2=BMT974354B.1.2.3,Phases=3,Linecode=CABA06_3_3,Length=0.030411000,Units=km
new line.TR12644284 bus1=BMT974354B.1.2.3,bus2=BMT9255069B.1.2.3,Phases=3,Linecode=CABA06_3_3,Length=0.031238000,Units=km
new line.TR12644285 bus1=BMT9255069B.1.2.3,bus2=BMT9255072B.1.2.3,Phases=3,Linecode=CABA06_3_3,Length=0.005099000,Units=km
new line.TR12644286 bus1=BMT9255072B.1.2.3,bus2=BMT168112685.1.2.3,Phases=3,Linecode=CABA06_3_3,Length=0.010197000,Units=km
new line.TR12659515 bus1=BMT170940296.1.2.3,bus2=BMT989215B.1.2.3,Phases=3,Linecode=CABA06_3_3,Length=0.031141000,Units=km
new line.TR12659516 bus1=BMT989215B.1.2.3,bus2=BMT170940297.1.2.3,Phases=3,Linecode=CABA06_3_3,Length=0.031824000,Units=km
new line.TR12664497 bus1=BMT168542536.1.2.3,bus2=BMT9274499B.1.2.3,Phases=3,Linecode=CABA06_3_3,Length=0.033996000,Units=km
new line.TR12664498 bus1=BMT9274499B.1.2.3,bus2=BMT9274501B.1.2.3,Phases=3,Linecode=CABA06_3_3,Length=0.033996000,Units=km
new line.TR12664499 bus1=BMT9274501B.1.2.3,bus2=BMT9274502B.1.2.3,Phases=3,Linecode=CABA06_3_3,Length=0.033996000,Units=km
new line.TR12664506 bus1=BMT9274502B.1.2.3,bus2=BMT168542537.1.2.3,Phases=3,Linecode=CABA06_3_3,Length=0.039995000,Units=km
new line.TR12758164 bus1=BMT171679205.1.2.3,bus2=BMT2431446B.1.2.3,Phases=3,Linecode=CABA06_3_3,Length=0.033238000,Units=km
new line.TR12758165 bus1=BMT2431446B.1.2.3,bus2=BMT2431439B.1.2.3,Phases=3,Linecode=CABA06_3_3,Length=0.033612000,Units=km
new line.TR12758168 bus1=BMT2431439B.1.2.3,bus2=BMT171679207.1.2.3,Phases=3,Linecode=CABA06_3_3,Length=0.045271000,Units=km
new line.TR12758812 bus1=BMT171695802.1.2.3,bus2=BMT171695803.1.2.3,Phases=3,Linecode=CAB104_3_3,Length=0.027728000,Units=km
new line.TR12758813 bus1=BMT171695803.1.2.3,bus2=BMT959122B.1.2.3,Phases=3,Linecode=CAB103_3_3,Length=0.008543000,Units=km
new line.TR12758820 bus1=BMT959115B.1.2.3,bus2=BMT171695805.1.2.3,Phases=3,Linecode=CAB104_3_3,Length=0.017462000,Units=km
new line.TR12758823 bus1=BMT171695803.1.2.3,bus2=BMT171695805.1.2.3,Phases=3,Linecode=CAB103_3_3,Length=0.005385000,Units=km
new line.TR1379925 bus1=BMT913832B.1.2.3,bus2=BMT913867B.1.2.3,Phases=3,Linecode=CAB103_3_3,Length=0.016277000,Units=km
new line.TR1379946 bus1=BMT103184678.1.2.3,bus2=BMT913853B.1.2.3,Phases=3,Linecode=CAB103_3_3,Length=0.014999000,Units=km
new line.TR1379960 bus1=BMT913853B.1.2.3,bus2=BMT913860B.1.2.3,Phases=3,Linecode=CAB103_3_3,Length=0.014865000,Units=km
new line.TR1379967 bus1=BMT913853B.1.2.3,bus2=BMT913881B.1.2.3,Phases=3,Linecode=CAB103_3_3,Length=0.014865000,Units=km
new line.TR1379974 bus1=BMT913853B.1.2.3,bus2=BMT913888B.1.2.3,Phases=3,Linecode=CAB103_3_3,Length=0.020613000,Units=km
new line.TR1379995 bus1=BMT913867B.1.2.3,bus2=BMT103184678.1.2.3,Phases=3,Linecode=CAB103_3_3,Length=0.031887000,Units=km
new line.TR1380009 bus1=BMT913881B.1.2.3,bus2=BMT913902B.1.2.3,Phases=3,Linecode=CAB103_3_3,Length=0.024756000,Units=km
new line.TR1380023 bus1=BMT913902B.1.2.3,bus2=BMT913909B.1.2.3,Phases=3,Linecode=CAB103_3_3,Length=0.029066000,Units=km
new line.TR1380030 bus1=BMT913909B.1.2.3,bus2=BMT914609B.1.2.3,Phases=3,Linecode=CAB103_3_3,Length=0.041105000,Units=km
new line.TR1380842 bus1=BMT914609B.1.2.3,bus2=BMT103184685.1.2.3,Phases=3,Linecode=CAB103_3_3,Length=0.031238000,Units=km
new line.TR1425383 bus1=BMT943281B.1.2.3,bus2=BMT153681178.1.2.3,Phases=3,Linecode=CAB102_3_3,Length=0.034536000,Units=km
new line.TR1425390 bus1=BMT943288B.1.2.3,bus2=BMT943281B.1.2.3,Phases=3,Linecode=CAB102_3_3,Length=0.035843000,Units=km
new line.TR1425397 bus1=BMT943295B.1.2.3,bus2=BMT943288B.1.2.3,Phases=3,Linecode=CAB102_3_3,Length=0.036765000,Units=km
new line.TR1425425 bus1=BMT943344B.1.2.3,bus2=BMT945724B.1.2.3,Phases=3,Linecode=CAB103_3_3,Length=0.031061000,Units=km
new line.TR1425439 bus1=BMT128243418.1.2.3,bus2=BMT943337B.1.2.3,Phases=3,Linecode=CAB103_3_3,Length=0.026169000,Units=km
new line.TR1425446 bus1=BMT128243418.1.2.3,bus2=BMT943344B.1.2.3,Phases=3,Linecode=CAB103_3_3,Length=0.016642000,Units=km
new line.TR1425453 bus1=BMT128243418.1.2.3,bus2=BMT943358B.1.2.3,Phases=3,Linecode=CAB103_3_3,Length=0.009219000,Units=km
new line.TR1425481 bus1=BMT943358B.1.2.3,bus2=BMT943372B.1.2.3,Phases=3,Linecode=CAB103_3_3,Length=0.028997000,Units=km
new line.TR1425495 bus1=BMT943365B.1.2.3,bus2=BMT128243418.1.2.3,Phases=3,Linecode=CAB103_3_3,Length=0.015810000,Units=km
new line.TR1425509 bus1=BMT943372B.1.2.3,bus2=BMT943386B.1.2.3,Phases=3,Linecode=CAB103_3_3,Length=0.030410000,Units=km
new line.TR1425516 bus1=BMT128243411.1.2.3,bus2=BMT943365B.1.2.3,Phases=3,Linecode=CAB103_3_3,Length=0.030229000,Units=km
new line.TR1425523 bus1=BMT943386B.1.2.3,bus2=BMT128243432.1.2.3,Phases=3,Linecode=CAB103_3_3,Length=0.033966000,Units=km
new line.TR1425628 bus1=BMT943463B.1.2.3,bus2=BMT944100B.1.2.3,Phases=3,Linecode=CAB103_3_3,Length=0.031061000,Units=km
new line.TR1425635 bus1=BMT109916165.1.2.3,bus2=BMT103183593.1.2.3,Phases=3,Linecode=CAB103_3_3,Length=0.027583000,Units=km
...
