2024_89_CemigReconfigurationCases/1_AlimsCemig/SSP06/SSP06ChavesMT.dss
new line.CTR104147 bus1=BMT169743344.1.2.3,bus2=BMT103182046.1.2.3,Phases=3,LineCode=tieSwitch,Length=0.001,Units=km,switch=T !numEQ 50944
new line.CTR10445 bus1=BMT162474562.1.2.3,bus2=BMT103182830.1.2.3,Phases=3,LineCode=tieSwitch,Length=0.001,Units=km,switch=T !numEQ 52690
new line.CTR10466 bus1=BMT103183432.1.2.3,bus2=BMT103184104.1.2.3,Phases=3,LineCode=tieSwitch,Length=0.001,Units=km,switch=T !numEQ 162090
new line.CTR162590 bus1=BMT103184181.1.2.3,bus2=BMT150342200.1.2.3,Phases=3,LineCode=tieSwitch,Length=0.001,Units=km,switch=T !numEQ 161070
new line.CTR584907 bus1=BMT103187394.1.2.3,bus2=BMT156513245.1.2.3,Phases=3,LineCode=tieSwitch,Length=0.001,Units=km,switch=T !numEQ 50575
new line.CTR585327 bus1=BMT103183054.1.2.3,bus2=BMT172010594.1.2.3,Phases=3,LineCode=tieSwitch,Length=0.001,Units=km,switch=T !numEQ 285054
new line.CTR586160 bus1=BMT103184041.1.2.3,bus2=BMT103184076.1.2.3,Phases=3,LineCode=tieSwitch,Length=0.001,Units=km,switch=T !numEQ 50876
new line.CTR586475 bus1=BMT162325222.1.2.3,bus2=BMT103181703.1.2.3,Phases=3,LineCode=tieSwitch,Length=0.001,Units=km,switch=T !numEQ 50948
new line.CTR586720 bus1=BMT103181976.1.2.3,bus2=BMT103182620.1.2.3,Phases=3,LineCode=tieSwitch,Length=0.001,Units=km,switch=T !numEQ 51012
new line.CTR586783 bus1=BMT103183957.1.2.3,bus2=BMT128243411.1.2.3,Phases=3,LineCode=tieSwitch,Length=0.001,Units=km,switch=T !numEQ 299992
new line.CTR586825 bus1=BMT103184636.1.2.3,bus2=BMT103184650.1.2.3,Phases=3,LineCode=tieSwitch,Length=0.001,Units=km,switch=T !numEQ 51023
new line.CTR587063 bus1=BMT103183593.1.2.3,bus2=BMT154995190.1.2.3,Phases=3,LineCode=tieSwitch,Length=0.001,Units=km,switch=T !numEQ 51096
new line.CTR588267 bus1=BMT103183565.1.2.3,bus2=BMT113436563.1.2.3,Phases=3,LineCode=tieSwitch,Length=0.001,Units=km,switch=T !numEQ 51596
new line.CTR590332 bus1=BMT103182025.1.2.3,bus2=BMT164593613.1.2.3,Phases=3,LineCode=tieSwitch,Length=0.001,Units=km,switch=T !numEQ 50124
new line.CTR790609 bus1=BMT164969747.1.2.3,bus2=BMT108055992.1.2.3,Phases=3,LineCode=tieSwitch,Length=0.001,Units=km,switch=T !numEQ 162797
open line.CTR790609 term=1
new line.CTR790791 bus1=BMT170940293.1.2.3,bus2=BMT108082662.1.2.3,Phases=3,LineCode=tieSwitch,Length=0.001,Units=km,switch=T !numEQ 299911
open line.CTR790791 term=1
new line.CTR816838 bus1=BMT127845132.1.2.3,bus2=BMT152618803.1.2.3,Phases=3,LineCode=tieSwitch,Length=0.001,Units=km,switch=T !numEQ 299993
new line.CTR852787 bus1=BMT150669823.1.2.3,bus2=BMT162325230.1.2.3,Phases=3,LineCode=tieSwitch,Length=0.001,Units=km,switch=T !numEQ 372705
new line.CTR887715 bus1=BMT162010469.1.2.3,bus2=BMT162012193.1.2.3,Phases=3,LineCode=tieSwitch,Length=0.001,Units=km,switch=T !numEQ 253854
new line.CTR90154 bus1=BMT103182543.1.2.3,bus2=BMT119894035.1.2.3,Phases=3,LineCode=tieSwitch,Length=0.001,Units=km,switch=T !numEQ 52707
new line.CTR90168 bus1=BMT103182088.1.2.3,bus2=BMT103182151.1.2.3,Phases=3,LineCode=tieSwitch,Length=0.001,Units=km,switch=T !numEQ 52709
new line.CTR90182 bus1=BMT103182235.1.2.3,bus2=BMT103182291.1.2.3,Phases=3,LineCode=tieSwitch,Length=0.001,Units=km,switch=T !numEQ 52712
new line.CTR917757 bus1=BMT172594534.1.2.3,bus2=BMT172594557.1.2.3,Phases=3,LineCode=tieSwitch,Length=0.001,Units=km,switch=T !numEQ 325201
new line.CTR37024 bus1=BMT170940298.1.2.3,bus2=BMT103181619.1.2.3,Phases=3,LineCode=tieSwitch,Length=0.001,Units=km,switch=T !numEQ 51625
new line.CTR592271 bus1=BMT103181815.1.2.3,bus2=BMT165573488.1.2.3,Phases=3,LineCode=tieSwitch,Length=0.001,Units=km,switch=T !numEQ 52674
new line.CTR592285 bus1=BMT165460788.1.2.3,bus2=BMT103182683.1.2.3,Phases=3,LineCode=tieSwitch,Length=0.001,Units=km,switch=T !numEQ 52677
new line.CTR592299 bus1=BMT103182725.1.2.3,bus2=BMT103182732.1.2.3,Phases=3,LineCode=tieSwitch,Length=0.001,Units=km,switch=T !numEQ 52679
new line.CTR592313 bus1=BMT103184146.1.2.3,bus2=BMT103184489.1.2.3,Phases=3,LineCode=tieSwitch,Length=0.001,Units=km,switch=T !numEQ 52681
new line.CTR592327 bus1=BMT103184440.1.2.3,bus2=BMT103184447.1.2.3,Phases=3,LineCode=tieSwitch,Length=0.001,Units=km,switch=T !numEQ 52686
new line.CTR592355 bus1=BMT103182865.1.2.3,bus2=BMT103183383.1.2.3,Phases=3,LineCode=tieSwitch,Length=0.001,Units=km,switch=T !numEQ 52689
new line.CTR592383 bus1=BMT103182921.1.2.3,bus2=BMT137744574.1.2.3,Phases=3,LineCode=tieSwitch,Length=0.001,Units=km,switch=T !numEQ 52691
new line.CTR592411 bus1=BMT103183005.1.2.3,bus2=BMT170541232.1.2.3,Phases=3,LineCode=tieSwitch,Length=0.001,Units=km,switch=T !numEQ 52694
new line.CTR592607 bus1=BMT109916116.1.2.3,bus2=BMT103183530.1.2.3,Phases=3,LineCode=tieSwitch,Length=0.001,Units=km,switch=T !numEQ 299991
open line.CTR592607 term=1
new line.CTR593461 bus1=BMT103182368.1.2.3,bus2=BMT103182403.1.2.3,Phases=3,LineCode=tieSwitch,Length=0.001,Units=km,switch=T !numEQ 53098
new line.CTR594161 bus1=BMT103183789.1.2.3,bus2=BMT105242181.1.2.3,Phases=3,LineCode=tieSwitch,Length=0.001,Units=km,switch=T !numEQ 53353
new line.CTR594490 bus1=BMT103181913.1.2.3,bus2=BMT103181920.1.2.3,Phases=3,LineCode=tieSwitch,Length=0.001,Units=km,switch=T !numEQ 74904
new line.CTR597059 bus1=BMT103182935.1.2.3,bus2=BMT103182942.1.2.3,Phases=3,LineCode=tieSwitch,Length=0.001,Units=km,switch=T !numEQ 52687
open line.CTR597059 term=1
new line.CTR876652 bus1=BMT157732748.1.2.3,bus2=BMT165087152.1.2.3,Phases=3,LineCode=tieSwitch,Length=0.001,Units=km,switch=T !numEQ 245377
new line.CTR877244 bus1=BMT157954643.2,bus2=BMT157954723.2,Phases=1,LineCode=tieSwitch1,Length=0.001,Units=km,switch=T !numEQ 243886
new line.CTR9039261 bus1=BMT2009038957.1.2.3,bus2=BMT2389067000.1.2.3,Phases=3,LineCode=tieSwitch,Length=0.001,Units=km,switch=T !numEQ 
new line.CTR9039525 bus1=BMT2389067000.1.2.3,bus2=BMT2009039526.1.2.3,Phases=3,LineCode=tieSwitch,Length=0.001,Units=km,switch=T !numEQ 
new line.CTRR33346 bus1=BMT152967004.1.2.3,bus2=BMT164969734.1.2.3,Phases=3,LineCode=tieSwitch,Length=0.001,Units=km,switch=T !numEQ 102105
new line.CTR12216 bus1=BMT103181864.1.2.3,bus2=BMT103181871.1.2.3,Phases=3,LineCode=tieSwitch,Length=0.001,Units=km,switch=T !numEQ 50947
open line.CTR12216 term=1
new line.CTR137698 bus1=BMT148784185.1.2.3,bus2=BMT103184160.1.2.3,Phases=3,LineCode=tieSwitch,Length=0.001,Units=km,switch=T !numEQ 52682
new line.CTR3893 bus1=BMT103183327.1.2.3,bus2=BMT150342196.1.2.3,Phases=3,LineCode=tieSwitch,Length=0.001,Units=km,switch=T !numEQ 50985
new line.CTR669425 bus1=BMT103182858.1.2.3,bus2=BMT103183369.1.2.3,Phases=3,LineCode=tieSwitch,Length=0.001,Units=km,switch=T !numEQ 162802
new line.CTR83378 bus1=BMT103187478.1.2.3,bus2=BMT103187492.1.2.3,Phases=3,LineCode=tieSwitch,Length=0.001,Units=km,switch=T !numEQ 50742
new line.CTRR41296 bus1=BMT169743333.1.2.3,bus2=BMT169743335.1.2.3,Phases=3,LineCode=tieSwitch,Length=0.001,Units=km,switch=T !numEQ 273326
new line.CTR10060 bus1=BMT171695814.1.2.3,bus2=BMT103184307.1.2.3,Phases=3,LineCode=tieSwitch,Length=0.001,Units=km,switch=T !numEQ 52684
new line.CTR10067 bus1=BMT103182893.1.2.3,bus2=BMT103182900.1.2.3,Phases=3,LineCode=tieSwitch,Length=0.001,Units=km,switch=T !numEQ 52688
new line.CTR144936 bus1=BMT103181591.1.2.3,bus2=BMT164270094.1.2.3,Phases=3,LineCode=tieSwitch,Length=0.001,Units=km,switch=T !numEQ 51527
new line.CTR48924 bus1=BMT157954769.1.2.3,bus2=BMT2328378.1.2.3,Phases=3,LineCode=tieSwitch,Length=0.001,Units=km,switch=T !numEQ 53108
open line.CTR48924 term=1
new line.CTR52893 bus1=BMT103181878.1.2.3,bus2=BMT103181885.1.2.3,Phases=3,LineCode=tieSwitch,Length=0.001,Units=km,switch=T !numEQ 74903
new line.CTR575737 bus1=BMT103182963.1.2.3,bus2=BMT103182977.1.2.3,Phases=3,LineCode=tieSwitch,Length=0.001,Units=km,switch=T !numEQ 116422
new line.CTR611626 bus1=BMT103183474.1.2.3,bus2=BMT167072331.1.2.3,Phases=3,LineCode=tieSwitch,Length=0.001,Units=km,switch=T !numEQ 74346
new line.CTR613579 bus1=BMT103184055.1.2.3,bus2=BMT167073103.1.2.3,Phases=3,LineCode=tieSwitch,Length=0.001,Units=km,switch=T !numEQ 74594
new line.CTR724998 bus1=BMT160915103.1.2.3,bus2=BMT167106070.1.2.3,Phases=3,LineCode=tieSwitch,Length=0.001,Units=km,switch=T !numEQ 162649
new line.CTR81068 bus1=BMT153681175.1.2.3,bus2=BMT103183334.1.2.3,Phases=3,LineCode=tieSwitch,Length=0.001,Units=km,switch=T !numEQ 50125
open line.CTR81068 term=1
new line.CTR879979 bus1=BMT158875689.1.2.3,bus2=BMT161166710.1.2.3,Phases=3,LineCode=tieSwitch,Length=0.001,Units=km,switch=T !numEQ 237583
open line.CTR879979 term=1
new line.CTR892668 bus1=BMT164142599.1.2.3,bus2=BMT170940291.1.2.3,Phases=3,LineCode=tieSwitch,Length=0.001,Units=km,switch=T !numEQ 246407
new line.CTR10690 bus1=BMT103183173.1.2.3,bus2=BMT103183180.1.2.3,Phases=3,LineCode=tieSwitch,Length=0.001,Units=km,switch=T !numEQ 57624
new line.CTR541080 bus1=BMT119894077.1.2.3,bus2=BMT103182613.1.2.3,Phases=3,LineCode=tieSwitch,Length=0.001,Units=km,switch=T !numEQ 52675
open line.CTR541080 term=1
new line.CTR541108 bus1=BMT103182718.1.2.3,bus2=BMT103182739.1.2.3,Phases=3,LineCode=tieSwitch,Length=0.001,Units=km,switch=T !numEQ 52678
new line.CTR83014 bus1=BMT103183096.1.2.3,bus2=BMT168542532.1.2.3,Phases=3,LineCode=tieSwitch,Length=0.001,Units=km,switch=T !numEQ 50661
new line.CTR83042 bus1=BMT103183117.1.2.3,bus2=BMT157380583.1.2.3,Phases=3,LineCode=tieSwitch,Length=0.001,Units=km,switch=T !numEQ 50663
new line.CTR83056 bus1=BMT103183243.1.2.3,bus2=BMT103183250.1.2.3,Phases=3,LineCode=tieSwitch,Length=0.001,Units=km,switch=T !numEQ 50664
new line.CTR83070 bus1=BMT157380586.1.2.3,bus2=BMT103183152.1.2.3,Phases=3,LineCode=tieSwitch,Length=0.001,Units=km,switch=T !numEQ 50665
open line.CTR83070 term=1
new line.CTR83084 bus1=BMT103183264.1.2.3,bus2=BMT152825185.1.2.3,Phases=3,LineCode=tieSwitch,Length=0.001,Units=km,switch=T !numEQ 50666
new line.CTR83098 bus1=BMT103183138.1.2.3,bus2=BMT103183159.1.2.3,Phases=3,LineCode=tieSwitch,Length=0.001,Units=km,switch=T !numEQ 50667
new line.CTR86080 bus1=BMT103183600.1.2.3,bus2=BMT172511331.1.2.3,Phases=3,LineCode=tieSwitch,Length=0.001,Units=km,switch=T !numEQ 51595
new line.CTR86150 bus1=BMT103183187.1.2.3,bus2=BMT103183194.1.2.3,Phases=3,LineCode=tieSwitch,Length=0.001,Units=km,switch=T !numEQ 51623
new line.CTR895535 bus1=BMT164969745.1.2.3,bus2=BMT168112682.1.2.3,Phases=3,LineCode=tieSwitch,Length=0.001,Units=km,switch=T !numEQ 269747
new line.CTR96965 bus1=BMT103183397.1.2.3,bus2=BMT169566253.1.2.3,Phases=3,LineCode=tieSwitch,Length=0.001,Units=km,switch=T !numEQ 52704
new line.CTR35904 bus1=BMT103181710.2,bus2=BMT150679057.2,Phases=1,LineCode=tieSwitch1,Length=0.001,Units=km,switch=T !numEQ 163424
new line.CTR627117 bus1=BMT103182333.1.2.3,bus2=BMT103182340.1.2.3,Phases=3,LineCode=tieSwitch,Length=0.001,Units=km,switch=T !numEQ 53097
new line.CTR896752 bus1=BMT165573489.1.2.3,bus2=BMT165573490.1.2.3,Phases=3,LineCode=tieSwitch,Length=0.001,Units=km,switch=T !numEQ 270292
new line.CTR911341 bus1=BMT170541233.1.2.3,bus2=BMT170541238.1.2.3,Phases=3,LineCode=tieSwitch,Length=0.001,Units=km,switch=T !numEQ 280813
new line.CTR99352 bus1=BMT103183446.1.2.3,bus2=BMT103184090.1.2.3,Phases=3,LineCode=tieSwitch,Length=0.001,Units=km,switch=T !numEQ 127935
new line.CTRR38956 bus1=BMT165316716.1.2.3,bus2=BMT165460784.1.2.3,Phases=3,LineCode=tieSwitch,Length=0.001,Units=km,switch=T !numEQ 269707
new line.CTR135710 bus1=BMT103181829.1.2.3,bus2=BMT103181843.1.2.3,Phases=3,LineCode=tieSwitch,Length=0.001,Units=km,switch=T !numEQ 50945
new line.CTR512688 bus1=BMT103183418.1.2.3,bus2=BMT103182571.1.2.3,Phases=3,LineCode=tieSwitch,Length=0.001,Units=km,switch=T !numEQ 51537
open line.CTR512688 term=1
new line.CTR774775 bus1=BMT103183236.1.2.3,bus2=BMT103183285.1.2.3,Phases=3,LineCode=tieSwitch,Length=0.001,Units=km,switch=T !numEQ 285056
new line.CTR84477 bus1=BMT103183754.1.2.3,bus2=BMT103183880.1.2.3,Phases=3,LineCode=tieSwitch,Length=0.001,Units=km,switch=T !numEQ 100165
new line.CTR89860 bus1=BMT103187275.1.2.3,bus2=BMT103187268.1.2.3,Phases=3,LineCode=tieSwitch,Length=0.001,Units=km,switch=T !numEQ 52603
new line.CTR89874 bus1=BMT103187527.1,bus2=BMT154393994.1,Phases=1,LineCode=tieSwitch1,Length=0.001,Units=km,switch=T !numEQ 52606
new line.CTR89888 bus1=BMT158770611.1.2.3,bus2=BMT103185364.1.2.3,Phases=3,LineCode=tieSwitch,Length=0.001,Units=km,switch=T !numEQ 52608
new line.CTR91190 bus1=BMT103182312.1.2.3,bus2=BMT103182424.1.2.3,Phases=3,LineCode=tieSwitch,Length=0.001,Units=km,switch=T !numEQ 53102
new line.CTR140211 bus1=BMT103182704.1.2.3,bus2=BMT148784181.1.2.3,Phases=3,LineCode=tieSwitch,Length=0.001,Units=km,switch=T !numEQ 52680
new line.CTR140225 bus1=BMT103184216.1.2.3,bus2=BMT166158551.1.2.3,Phases=3,LineCode=tieSwitch,Length=0.001,Units=km,switch=T !numEQ 52683
new line.CTR140526 bus1=BMT103187233.1.2.3,bus2=BMT103184972.1.2.3,Phases=3,LineCode=tieSwitch,Length=0.001,Units=km,switch=T !numEQ 52602
open line.CTR140526 term=1
new line.CTR140540 bus1=BMT156513256.1.2.3,bus2=BMT103187303.1.2.3,Phases=3,LineCode=tieSwitch,Length=0.001,Units=km,switch=T !numEQ 52604
new line.CTR140554 bus1=BMT103187289.1.2.3,bus2=BMT103187296.1.2.3,Phases=3,LineCode=tieSwitch,Length=0.001,Units=km,switch=T !numEQ 52605
new line.CTR638800 bus1=BMT103182060.1.2.3,bus2=BMT161227279.1.2.3,Phases=3,LineCode=tieSwitch,Length=0.001,Units=km,switch=T !numEQ 100164
new line.CTR640256 bus1=BMT103183838.1.2.3,bus2=BMT103183852.1.2.3,Phases=3,LineCode=tieSwitch,Length=0.001,Units=km,switch=T !numEQ 51005
new line.CTR641803 bus1=BMT103183656.1,bus2=BMT103183670.1,Phases=1,LineCode=tieSwitch1,Length=0.001,Units=km,switch=T !numEQ 53289
new line.CTR642041 bus1=BMT103185350.1.2.3,bus2=BMT103185378.1.2.3,Phases=3,LineCode=tieSwitch,Length=0.001,Units=km,switch=T !numEQ 52732
new line.CTR642468 bus1=BMT103182928.1.2.3,bus2=BMT103182991.1.2.3,Phases=3,LineCode=tieSwitch,Length=0.001,Units=km,switch=T !numEQ 52693
new line.CTR642489 bus1=BMT103183068.1.2.3,bus2=BMT103183299.1.2.3,Phases=3,LineCode=tieSwitch,Length=0.001,Units=km,switch=T !numEQ 52695
new line.CTR642503 bus1=BMT103183516.1.2.3,bus2=BMT153681165.1.2.3,Phases=3,LineCode=tieSwitch,Length=0.001,Units=km,switch=T !numEQ 52698
new line.CTR642531 bus1=BMT103183481.1.2.3,bus2=BMT172594533.1.2.3,Phases=3,LineCode=tieSwitch,Length=0.001,Units=km,switch=T !numEQ 52701
new line.CTR642545 bus1=BMT103182536.1.2.3,bus2=BMT103182550.1.2.3,Phases=3,LineCode=tieSwitch,Length=0.001,Units=km,switch=T !numEQ 51538
new line.CTR642559 bus1=BMT103182515.1.2.3,bus2=BMT103182522.1.2.3,Phases=3,LineCode=tieSwitch,Length=0.001,Units=km,switch=T !numEQ 52708
new line.CTR642573 bus1=BMT164593614.1.2.3,bus2=BMT103182102.1.2.3,Phases=3,LineCode=tieSwitch,Length=0.001,Units=km,switch=T !numEQ 52710
new line.CTR642587 bus1=BMT103182214.1.2.3,bus2=BMT103182249.1.2.3,Phases=3,LineCode=tieSwitch,Length=0.001,Units=km,switch=T !numEQ 52711
new line.CTR642601 bus1=BMT103182123.1.2.3,bus2=BMT103182137.1.2.3,Phases=3,LineCode=tieSwitch,Length=0.001,Units=km,switch=T !numEQ 52713
new line.CTR793465 bus1=BMT161166702.1.2.3,bus2=BMT109910460.1.2.3,Phases=3,LineCode=tieSwitch,Length=0.001,Units=km,switch=T !numEQ 222200
new line.CTR851558 bus1=BMT150253616.1.2.3,bus2=BMT156639047.1.2.3,Phases=3,LineCode=tieSwitch,Length=0.001,Units=km,switch=T !numEQ 376050
new line.CTR90042 bus1=BMT103181605.1.2.3,bus2=BMT170586496.1.2.3,Phases=3,LineCode=tieSwitch,Length=0.001,Units=km,switch=T !numEQ 52671
new line.CTR90084 bus1=BMT103181640.1.2.3,bus2=BMT162325214.1.2.3,Phases=3,LineCode=tieSwitch,Length=0.001,Units=km,switch=T !numEQ 52672
new line.CTR90098 bus1=BMT157621004.1.2.3,bus2=BMT157621006.1.2.3,Phases=3,LineCode=tieSwitch,Length=0.001,Units=km,switch=T !numEQ 52697
new line.CTR90112 bus1=BMT154995185.1.2.3,bus2=BMT103183537.1.2.3,Phases=3,LineCode=tieSwitch,Length=0.001,Units=km,switch=T !numEQ 52699
open line.CTR90112 term=1
new line.CTR914309 bus1=BMT171505254.1.2.3,bus2=BMT171505265.1.2.3,Phases=3,LineCode=tieSwitch,Length=0.001,Units=km,switch=T !numEQ 280842
