2024_89_CemigReconfigurationCases/1_AlimsCemig/SSP06/SSP06Transformadores.dss
new transformer.1263390 Phases=3,Windings=2,Buses=[BMT162325221.1.2.3 BBT84144895.1.2.3.0],Conns=[delta wye],kvs=[13.8 0.22],kvas=[45.000000000 45.000000000],Taps=[1,1.000000000],%loadloss=1.522000000,%noloadloss=0.377777000
new transformer.1315169 Phases=3,Windings=2,Buses=[BMT154995191.1.2.3 BBT91263377.1.2.3.0],Conns=[delta wye],kvs=[13.8 0.22],kvas=[30.000000000 30.000000000],Taps=[1,1.000000000],%loadloss=1.667000000,%noloadloss=0.433333000
new transformer.1365478 Phases=3,Windings=2,Buses=[BMT152618805.1.2.3 BBT127830691.1.2.3.0],Conns=[delta wye],kvs=[13.8 0.22],kvas=[45.000000000 45.000000000],Taps=[1,1.000000000],%loadloss=1.522000000,%noloadloss=0.377777000
new transformer.1409033 Phases=3,Windings=2,Buses=[BMT152618806.1.2.3 BBT152618807.1.2.3.0],Conns=[delta wye],kvs=[13.8 0.22],kvas=[45.000000000 45.000000000],Taps=[1,1.000000000],%loadloss=1.522000000,%noloadloss=0.377777000
new transformer.1426817 Phases=3,Windings=2,Buses=[BMT156513249.1.2.3 BBT156513262.1.2.3.0],Conns=[delta wye],kvs=[13.8 0.22],kvas=[150.000000000 150.000000000],Taps=[1,1.000000000],%loadloss=1.127000000,%noloadloss=0.280000000
new transformer.1468268 Phases=3,Windings=2,Buses=[BMT166158554.1.2.3 BBT166158555.1.2.3.0],Conns=[delta wye],kvs=[13.8 0.22],kvas=[250.000000000 250.000000000],Taps=[1,1.000000000],%loadloss=0.990000000,%noloadloss=0.280000000
new transformer.259269 Phases=3,Windings=2,Buses=[BMT103184678.1.2.3 BBT1169619.1.2.3.0],Conns=[delta wye],kvs=[13.8 0.22],kvas=[30.000000000 30.000000000],Taps=[1,1.000000000],%loadloss=1.667000000,%noloadloss=0.433333000
new transformer.259367 Phases=3,Windings=2,Buses=[BMT103184685.1.2.3 BBT1170522.1.2.3.0],Conns=[delta wye],kvs=[13.8 0.22],kvas=[30.000000000 30.000000000],Taps=[1,1.000000000],%loadloss=1.667000000,%noloadloss=0.433333000
new transformer.263777 Phases=1,Windings=3,Buses=[BMT103183726.1 BBT1198151.1.0 BBT1198151.0.2],Conns=[wye wye wye],kvs=[7.967 0.12 0.12],kvas=[5.000000000 5.000000000 5.000000000],Taps=[1,1.000000000,1.000000000],%loadloss=1.900000000,%noloadloss=0.600000000
new transformer.269013 Phases=3,Windings=2,Buses=[BMT153681170.1.2.3 BBT1219067.1.2.3.0],Conns=[delta wye],kvs=[13.8 0.22],kvas=[45.000000000 45.000000000],Taps=[1,1.000000000],%loadloss=1.522000000,%noloadloss=0.377777000
new transformer.269069 Phases=3,Windings=2,Buses=[BMT103182557.1.2.3 BBT1219445.1.2.3.0],Conns=[delta wye],kvs=[13.8 0.22],kvas=[75.000000000 75.000000000],Taps=[1,1.000000000],%loadloss=1.340000000,%noloadloss=0.340000000
new transformer.269083 Phases=3,Windings=2,Buses=[BMT103182179.1.2.3 BBT1219487.1.2.3.0],Conns=[delta wye],kvs=[13.8 0.22],kvas=[45.000000000 45.000000000],Taps=[1,1.000000000],%loadloss=1.522000000,%noloadloss=0.377777000
new transformer.269111 Phases=3,Windings=2,Buses=[BMT103182186.1.2.3 BBT1219725.1.2.3.0],Conns=[delta wye],kvs=[13.8 0.22],kvas=[30.000000000 30.000000000],Taps=[1,1.000000000],%loadloss=1.667000000,%noloadloss=0.433333000
new transformer.269125 Phases=3,Windings=2,Buses=[BMT103182795.1.2.3 BBT1219823.1.2.3.0],Conns=[delta wye],kvs=[13.8 0.22],kvas=[45.000000000 45.000000000],Taps=[1,1.000000000],%loadloss=1.522000000,%noloadloss=0.377777000
new transformer.269139 Phases=3,Windings=2,Buses=[BMT103184461.1.2.3 BBT1219879.1.2.3.0],Conns=[delta wye],kvs=[13.8 0.22],kvas=[45.000000000 45.000000000],Taps=[1,1.000000000],%loadloss=1.522000000,%noloadloss=0.377777000
new transformer.269181 Phases=3,Windings=2,Buses=[BMT172594558.1.2.3 BBT1220159.1.2.3.0],Conns=[delta wye],kvs=[13.8 0.22],kvas=[75.000000000 75.000000000],Taps=[1,1.000000000],%loadloss=1.340000000,%noloadloss=0.340000000
new transformer.269223 Phases=3,Windings=2,Buses=[BMT103183257.1.2.3 BBT1220509.1.2.3.0],Conns=[delta wye],kvs=[13.8 0.22],kvas=[30.000000000 30.000000000],Taps=[1,1.000000000],%loadloss=1.667000000,%noloadloss=0.433333000
new transformer.269272 Phases=3,Windings=2,Buses=[BMT164593617.1.2.3 BBT1220775.1.2.3.0],Conns=[delta wye],kvs=[13.8 0.22],kvas=[30.000000000 30.000000000],Taps=[1,1.000000000],%loadloss=1.667000000,%noloadloss=0.433333000
new transformer.269286 Phases=3,Windings=2,Buses=[BMT103184433.1.2.3 BBT1220852.1.2.3.0],Conns=[delta wye],kvs=[13.8 0.22],kvas=[75.000000000 75.000000000],Taps=[1,1.000000000],%loadloss=1.340000000,%noloadloss=0.340000000
new transformer.269300 Phases=3,Windings=2,Buses=[BMT157954767.1.2.3 BBT1220964.1.2.3.0],Conns=[delta wye],kvs=[13.8 0.22],kvas=[45.000000000 45.000000000],Taps=[1,1.000000000],%loadloss=1.522000000,%noloadloss=0.377777000
new transformer.269307 Phases=1,Windings=3,Buses=[BMT157954724.2 BBT1221083.1.0 BBT1221083.0.2],Conns=[wye wye wye],kvs=[7.967 0.12 0.12],kvas=[35.000000000 35.000000000 35.000000000],Taps=[1,1.000000000,1.000000000],%loadloss=1.293000000,%noloadloss=0.342857000
new transformer.269335 Phases=3,Windings=2,Buses=[BMT153681167.1.2.3 BBT1221349.1.2.3.0],Conns=[delta wye],kvs=[13.8 0.22],kvas=[30.000000000 30.000000000],Taps=[1,1.000000000],%loadloss=1.667000000,%noloadloss=0.433333000
new transformer.269440 Phases=3,Windings=2,Buses=[BMT137744588.1.2.3 BBT1221776.1.2.3.0],Conns=[delta wye],kvs=[13.8 0.22],kvas=[75.000000000 75.000000000],Taps=[1,1.000000000],%loadloss=1.340000000,%noloadloss=0.340000000
new transformer.269468 Phases=3,Windings=2,Buses=[BMT103183166.1.2.3 BBT1222007.1.2.3.0],Conns=[delta wye],kvs=[13.8 0.22],kvas=[15.000000000 15.000000000],Taps=[1,1.000000000],%loadloss=1.967000000,%noloadloss=0.500000000
new transformer.269489 Phases=3,Windings=2,Buses=[BMT172010598.1.2.3 BBT1222084.1.2.3.0],Conns=[delta wye],kvs=[13.8 0.22],kvas=[75.000000000 75.000000000],Taps=[1,1.000000000],%loadloss=1.340000000,%noloadloss=0.340000000
new transformer.269496 Phases=3,Windings=2,Buses=[BMT157621007.1.2.3 BBT1222133.1.2.3.0],Conns=[delta wye],kvs=[13.8 0.22],kvas=[30.000000000 30.000000000],Taps=[1,1.000000000],%loadloss=1.667000000,%noloadloss=0.433333000
new transformer.269594 Phases=3,Windings=2,Buses=[BMT169978149.1.2.3 BBT1222735.1.2.3.0],Conns=[delta wye],kvs=[13.8 0.22],kvas=[45.000000000 45.000000000],Taps=[1,1.000000000],%loadloss=1.522000000,%noloadloss=0.377777000
new transformer.269622 Phases=3,Windings=2,Buses=[BMT170541234.1.2.3 BBT1222924.1.2.3.0],Conns=[delta wye],kvs=[13.8 0.22],kvas=[45.000000000 45.000000000],Taps=[1,1.000000000],%loadloss=1.522000000,%noloadloss=0.377777000
new transformer.269657 Phases=3,Windings=2,Buses=[BMT103182277.1.2.3 BBT1223029.1.2.3.0],Conns=[delta wye],kvs=[13.8 0.22],kvas=[45.000000000 45.000000000],Taps=[1,1.000000000],%loadloss=1.522000000,%noloadloss=0.377777000
new transformer.1176254 Phases=3,Windings=2,Buses=[BMT103182284.1.2.3 BBT57086682.1.2.3.0],Conns=[delta wye],kvs=[13.8 0.22],kvas=[75.000000000 75.000000000],Taps=[1,1.000000000],%loadloss=1.340000000,%noloadloss=0.340000000
new transformer.1335952 Phases=1,Windings=3,Buses=[BMT105242202.1 BBT105242209.1.0 BBT105242209.0.2],Conns=[wye wye wye],kvs=[7.967 0.12 0.12],kvas=[35.000000000 35.000000000 35.000000000],Taps=[1,1.000000000,1.000000000],%loadloss=1.293000000,%noloadloss=0.342857000
new transformer.1360662 Phases=3,Windings=2,Buses=[BMT162325229.1.2.3 BBT124099922.1.2.3.0],Conns=[delta wye],kvs=[13.8 0.22],kvas=[75.000000000 75.000000000],Taps=[1,1.000000000],%loadloss=1.340000000,%noloadloss=0.340000000
new transformer.1498588 Phases=3,Windings=2,Buses=[BMT171695805.1.2.3 BBT171695818.1.2.3.0],Conns=[delta wye],kvs=[13.8 0.22],kvas=[150.000000000 150.000000000],Taps=[1,1.000000000],%loadloss=1.127000000,%noloadloss=0.280000000
new transformer.269706 Phases=3,Windings=2,Buses=[BMT103182270.1.2.3 BBT1223309.1.2.3.0],Conns=[delta wye],kvs=[13.8 0.22],kvas=[75.000000000 75.000000000],Taps=[1,1.000000000],%loadloss=1.340000000,%noloadloss=0.340000000
new transformer.269734 Phases=3,Windings=2,Buses=[BMT103181850.1.2.3 BBT1223498.1.2.3.0],Conns=[delta wye],kvs=[13.8 0.22],kvas=[30.000000000 30.000000000],Taps=[1,1.000000000],%loadloss=1.667000000,%noloadloss=0.433333000
new transformer.269755 Phases=3,Windings=2,Buses=[BMT169743345.1.2.3 BBT1223617.1.2.3.0],Conns=[delta wye],kvs=[13.8 0.22],kvas=[45.000000000 45.000000000],Taps=[1,1.000000000],%loadloss=1.522000000,%noloadloss=0.377777000
new transformer.269832 Phases=3,Windings=2,Buses=[BMT171505268.1.2.3 BBT1224030.1.2.3.0],Conns=[delta wye],kvs=[13.8 0.22],kvas=[150.000000000 150.000000000],Taps=[1,1.000000000],%loadloss=1.127000000,%noloadloss=0.280000000
new transformer.269860 Phases=3,Windings=2,Buses=[BMT171695817.1.2.3 BBT1224114.1.2.3.0],Conns=[delta wye],kvs=[13.8 0.22],kvas=[45.000000000 45.000000000],Taps=[1,1.000000000],%loadloss=1.522000000,%noloadloss=0.377777000
new transformer.269874 Phases=3,Windings=2,Buses=[BMT171695815.1.2.3 BBT1224170.1.2.3.0],Conns=[delta wye],kvs=[13.8 0.22],kvas=[75.000000000 75.000000000],Taps=[1,1.000000000],%loadloss=1.340000000,%noloadloss=0.340000000
new transformer.269888 Phases=3,Windings=2,Buses=[BMT171505267.1.2.3 BBT1224226.1.2.3.0],Conns=[delta wye],kvs=[13.8 0.22],kvas=[150.000000000 150.000000000],Taps=[1,1.000000000],%loadloss=1.127000000,%noloadloss=0.280000000
new transformer.269930 Phases=3,Windings=2,Buses=[BMT103184496.1.2.3 BBT1224415.1.2.3.0],Conns=[delta wye],kvs=[13.8 0.22],kvas=[75.000000000 75.000000000],Taps=[1,1.000000000],%loadloss=1.340000000,%noloadloss=0.340000000
new transformer.269958 Phases=3,Windings=2,Buses=[BMT103184510.1.2.3 BBT1224716.1.2.3.0],Conns=[delta wye],kvs=[13.8 0.22],kvas=[75.000000000 75.000000000],Taps=[1,1.000000000],%loadloss=1.340000000,%noloadloss=0.340000000
new transformer.269972 Phases=3,Windings=2,Buses=[BMT166158553.1.2.3 BBT1224842.1.2.3.0],Conns=[delta wye],kvs=[13.8 0.22],kvas=[75.000000000 75.000000000],Taps=[1,1.000000000],%loadloss=1.340000000,%noloadloss=0.340000000
new transformer.270014 Phases=3,Windings=2,Buses=[BMT171695816.1.2.3 BBT1225129.1.2.3.0],Conns=[delta wye],kvs=[13.8 0.22],kvas=[150.000000000 150.000000000],Taps=[1,1.000000000],%loadloss=1.127000000,%noloadloss=0.280000000
new transformer.270084 Phases=1,Windings=3,Buses=[BMT119894063.1 BBT1225500.1.0 BBT1225500.0.2],Conns=[wye wye wye],kvs=[7.967 0.12 0.12],kvas=[35.000000000 35.000000000 35.000000000],Taps=[1,1.000000000,1.000000000],%loadloss=1.293000000,%noloadloss=0.342857000
new transformer.270098 Phases=3,Windings=2,Buses=[BMT171695802.1.2.3 BBT1225647.1.2.3.0],Conns=[delta wye],kvs=[13.8 0.22],kvas=[75.000000000 75.000000000],Taps=[1,1.000000000],%loadloss=1.340000000,%noloadloss=0.340000000
new transformer.270112 Phases=3,Windings=2,Buses=[BMT169743336.1.2.3 BBT1225724.1.2.3.0],Conns=[delta wye],kvs=[13.8 0.22],kvas=[30.000000000 30.000000000],Taps=[1,1.000000000],%loadloss=1.667000000,%noloadloss=0.433333000
new transformer.270126 Phases=3,Windings=2,Buses=[BMT171505266.1.2.3 BBT1225836.1.2.3.0],Conns=[delta wye],kvs=[13.8 0.22],kvas=[75.000000000 75.000000000],Taps=[1,1.000000000],%loadloss=1.340000000,%noloadloss=0.340000000
new transformer.270133 Phases=3,Windings=2,Buses=[BMT148784182.1.2.3 BBT1225850.1.2.3.0],Conns=[delta wye],kvs=[13.8 0.22],kvas=[75.000000000 75.000000000],Taps=[1,1.000000000],%loadloss=1.340000000,%noloadloss=0.340000000
new transformer.270161 Phases=3,Windings=2,Buses=[BMT171695804.1.2.3 BBT1226095.1.2.3.0],Conns=[delta wye],kvs=[13.8 0.22],kvas=[75.000000000 75.000000000],Taps=[1,1.000000000],%loadloss=1.340000000,%noloadloss=0.340000000
new transformer.270175 Phases=3,Windings=2,Buses=[BMT148784184.1.2.3 BBT1226123.1.2.3.0],Conns=[delta wye],kvs=[13.8 0.22],kvas=[75.000000000 75.000000000],Taps=[1,1.000000000],%loadloss=1.340000000,%noloadloss=0.340000000
new transformer.270203 Phases=3,Windings=2,Buses=[BMT103182879.1.2.3 BBT1226291.1.2.3.0],Conns=[delta wye],kvs=[13.8 0.22],kvas=[75.000000000 75.000000000],Taps=[1,1.000000000],%loadloss=1.340000000,%noloadloss=0.340000000
new transformer.270217 Phases=3,Windings=2,Buses=[BMT103184405.1.2.3 BBT1226368.1.2.3.0],Conns=[delta wye],kvs=[13.8 0.22],kvas=[45.000000000 45.000000000],Taps=[1,1.000000000],%loadloss=1.522000000,%noloadloss=0.377777000
new transformer.270245 Phases=3,Windings=2,Buses=[BMT171679206.1.2.3 BBT1226592.1.2.3.0],Conns=[delta wye],kvs=[13.8 0.22],kvas=[75.000000000 75.000000000],Taps=[1,1.000000000],%loadloss=1.340000000,%noloadloss=0.340000000
new transformer.270252 Phases=3,Windings=2,Buses=[BMT169743332.1.2.3 BBT1226676.1.2.3.0],Conns=[delta wye],kvs=[13.8 0.22],kvas=[45.000000000 45.000000000],Taps=[1,1.000000000],%loadloss=1.522000000,%noloadloss=0.377777000
new transformer.270273 Phases=3,Windings=2,Buses=[BMT103182459.1.2.3 BBT1226802.1.2.3.0],Conns=[delta wye],kvs=[13.8 0.22],kvas=[30.000000000 30.000000000],Taps=[1,1.000000000],%loadloss=1.667000000,%noloadloss=0.433333000
new transformer.270315 Phases=3,Windings=2,Buses=[BMT103182872.1.2.3 BBT1226949.1.2.3.0],Conns=[delta wye],kvs=[13.8 0.22],kvas=[75.000000000 75.000000000],Taps=[1,1.000000000],%loadloss=1.340000000,%noloadloss=0.340000000
new transformer.270329 Phases=3,Windings=2,Buses=[BMT103182172.1.2.3 BBT1227096.1.2.3.0],Conns=[delta wye],kvs=[13.8 0.22],kvas=[45.000000000 45.000000000],Taps=[1,1.000000000],%loadloss=1.522000000,%noloadloss=0.377777000
new transformer.270343 Phases=3,Windings=2,Buses=[BMT103182480.1.2.3 BBT1227236.1.2.3.0],Conns=[delta wye],kvs=[13.8 0.22],kvas=[15.000000000 15.000000000],Taps=[1,1.000000000],%loadloss=1.967000000,%noloadloss=0.500000000
new transformer.1431902 Phases=3,Windings=2,Buses=[BMT170541237.1.2.3 BBT157621480.1.2.3.0],Conns=[delta wye],kvs=[13.8 0.22],kvas=[45.000000000 45.000000000],Taps=[1,1.000000000],%loadloss=1.522000000,%noloadloss=0.377777000
new transformer.1463456 Phases=3,Windings=2,Buses=[BMT165087157.1.2.3 BBT165003120.1.2.3.0],Conns=[delta wye],kvs=[13.8 0.22],kvas=[150.000000000 150.000000000],Taps=[1,1.000000000],%loadloss=1.127000000,%noloadloss=0.280000000
new transformer.270497 Phases=3,Windings=2,Buses=[BMT103182466.1.2.3 BBT1228062.1.2.3.0],Conns=[delta wye],kvs=[13.8 0.22],kvas=[30.000000000 30.000000000],Taps=[1,1.000000000],%loadloss=1.667000000,%noloadloss=0.433333000
new transformer.270518 Phases=3,Windings=2,Buses=[BMT119894049.1.2.3 BBT1228167.1.2.3.0],Conns=[delta wye],kvs=[13.8 0.22],kvas=[45.000000000 45.000000000],Taps=[1,1.000000000],%loadloss=1.522000000,%noloadloss=0.377777000
new transformer.270567 Phases=3,Windings=2,Buses=[BMT103184426.1.2.3 BBT1228664.1.2.3.0],Conns=[delta wye],kvs=[13.8 0.22],kvas=[150.000000000 150.000000000],Taps=[1,1.000000000],%loadloss=1.127000000,%noloadloss=0.280000000
new transformer.270588 Phases=3,Windings=2,Buses=[BMT171695811.1.2.3 BBT1228853.1.2.3.0],Conns=[delta wye],kvs=[13.8 0.22],kvas=[100.000000000 100.000000000],Taps=[1,1.000000000],%loadloss=1.218000000,%noloadloss=0.335000000
new transformer.270672 Phases=3,Windings=2,Buses=[BMT103182753.1.2.3 BBT1229196.1.2.3.0],Conns=[delta wye],kvs=[13.8 0.22],kvas=[75.000000000 75.000000000],Taps=[1,1.000000000],%loadloss=1.340000000,%noloadloss=0.340000000
new transformer.270700 Phases=3,Windings=2,Buses=[BMT119894042.1.2.3 BBT1229392.1.2.3.0],Conns=[delta wye],kvs=[13.8 0.22],kvas=[45.000000000 45.000000000],Taps=[1,1.000000000],%loadloss=1.522000000,%noloadloss=0.377777000
new transformer.270721 Phases=3,Windings=2,Buses=[BMT103182697.1.2.3 BBT1229553.1.2.3.0],Conns=[delta wye],kvs=[13.8 0.22],kvas=[75.000000000 75.000000000],Taps=[1,1.000000000],%loadloss=1.340000000,%noloadloss=0.340000000
new transformer.270728 Phases=3,Windings=2,Buses=[BMT103182781.1.2.3 BBT1229735.1.2.3.0],Conns=[delta wye],kvs=[13.8 0.22],kvas=[75.000000000 75.000000000],Taps=[1,1.000000000],%loadloss=1.340000000,%noloadloss=0.340000000
new transformer.270756 Phases=3,Windings=2,Buses=[BMT169743343.1.2.3 BBT1229917.1.2.3.0],Conns=[delta wye],kvs=[13.8 0.22],kvas=[45.000000000 45.000000000],Taps=[1,1.000000000],%loadloss=1.522000000,%noloadloss=0.377777000
new transformer.270777 Phases=3,Windings=2,Buses=[BMT162474564.1.2.3 BBT1230015.1.2.3.0],Conns=[delta wye],kvs=[13.8 0.22],kvas=[45.000000000 45.000000000],Taps=[1,1.000000000],%loadloss=1.522000000,%noloadloss=0.377777000
new transformer.270784 Phases=3,Windings=2,Buses=[BMT103182774.1.2.3 BBT1230120.1.2.3.0],Conns=[delta wye],kvs=[13.8 0.22],kvas=[45.000000000 45.000000000],Taps=[1,1.000000000],%loadloss=1.522000000,%noloadloss=0.377777000
new transformer.270812 Phases=3,Windings=2,Buses=[BMT103184384.1.2.3 BBT1230274.1.2.3.0],Conns=[delta wye],kvs=[13.8 0.22],kvas=[75.000000000 75.000000000],Taps=[1,1.000000000],%loadloss=1.340000000,%noloadloss=0.340000000
new transformer.270833 Phases=3,Windings=2,Buses=[BMT171695809.1.2.3 BBT1230484.1.2.3.0],Conns=[delta wye],kvs=[13.8 0.22],kvas=[75.000000000 75.000000000],Taps=[1,1.000000000],%loadloss=1.340000000,%noloadloss=0.340000000
new transformer.270861 Phases=3,Windings=2,Buses=[BMT162474561.1.2.3 BBT1230708.1.2.3.0],Conns=[delta wye],kvs=[13.8 0.22],kvas=[75.000000000 75.000000000],Taps=[1,1.000000000],%loadloss=1.340000000,%noloadloss=0.340000000
new transformer.270896 Phases=3,Windings=2,Buses=[BMT103184398.1.2.3 BBT1230918.1.2.3.0],Conns=[delta wye],kvs=[13.8 0.22],kvas=[75.000000000 75.000000000],Taps=[1,1.000000000],%loadloss=1.340000000,%noloadloss=0.340000000
new transformer.270917 Phases=3,Windings=2,Buses=[BMT171695808.1.2.3 BBT1231100.1.2.3.0],Conns=[delta wye],kvs=[13.8 0.22],kvas=[75.000000000 75.000000000],Taps=[1,1.000000000],%loadloss=1.340000000,%noloadloss=0.340000000
new transformer.270938 Phases=3,Windings=2,Buses=[BMT165460787.1.2.3 BBT1231233.1.2.3.0],Conns=[delta wye],kvs=[13.8 0.22],kvas=[75.000000000 75.000000000],Taps=[1,1.000000000],%loadloss=1.340000000,%noloadloss=0.340000000
new transformer.270973 Phases=3,Windings=2,Buses=[BMT103182788.1.2.3 BBT1231639.1.2.3.0],Conns=[delta wye],kvs=[13.8 0.22],kvas=[45.000000000 45.000000000],Taps=[1,1.000000000],%loadloss=1.522000000,%noloadloss=0.377777000
new transformer.270994 Phases=3,Windings=2,Buses=[BMT165460786.1.2.3 BBT1231800.1.2.3.0],Conns=[delta wye],kvs=[13.8 0.22],kvas=[75.000000000 75.000000000],Taps=[1,1.000000000],%loadloss=1.340000000,%noloadloss=0.340000000
new transformer.271001 Phases=3,Windings=2,Buses=[BMT171695813.1.2.3 BBT1231996.1.2.3.0],Conns=[delta wye],kvs=[13.8 0.22],kvas=[45.000000000 45.000000000],Taps=[1,1.000000000],%loadloss=1.522000000,%noloadloss=0.377777000
new transformer.271036 Phases=3,Windings=2,Buses=[BMT171695807.1.2.3 BBT1232178.1.2.3.0],Conns=[delta wye],kvs=[13.8 0.22],kvas=[75.000000000 75.000000000],Taps=[1,1.000000000],%loadloss=1.340000000,%noloadloss=0.340000000
new transformer.271064 Phases=3,Windings=2,Buses=[BMT158770606.1.2.3 BBT1232304.1.2.3.0],Conns=[delta wye],kvs=[13.8 0.22],kvas=[45.000000000 45.000000000],Taps=[1,1.000000000],%loadloss=1.522000000,%noloadloss=0.377777000
new transformer.271106 Phases=3,Windings=2,Buses=[BMT162325219.1.2.3 BBT1232479.1.2.3.0],Conns=[delta wye],kvs=[13.8 0.22],kvas=[75.000000000 75.000000000],Taps=[1,1.000000000],%loadloss=1.340000000,%noloadloss=0.340000000
new transformer.1131972 Phases=3,Windings=2,Buses=[BMT169743331.1.2.3 BBT29753859.1.2.3.0],Conns=[delta wye],kvs=[13.8 0.22],kvas=[150.000000000 150.000000000],Taps=[1,1.000000000],%loadloss=1.127000000,%noloadloss=0.280000000
new transformer.1318942 Phases=3,Windings=2,Buses=[BMT158770609.1.2.3 BBT92602141.1.2.3.0],Conns=[delta wye],kvs=[13.8 0.22],kvas=[30.000000000 30.000000000],Taps=[1,1.000000000],%loadloss=1.667000000,%noloadloss=0.433333000
new transformer.1342595 Phases=1,Windings=3,Buses=[BMT161166708.2 BBT109942044.1.0 BBT109942044.0.2],Conns=[wye wye wye],kvs=[7.967 0.12 0.12],kvas=[35.000000000 35.000000000 35.000000000],Taps=[1,1.000000000,1.000000000],%loadloss=1.293000000,%noloadloss=0.342857000
new transformer.1342637 Phases=1,Windings=3,Buses=[BMT161166709.2 BBT109987096.1.0 BBT109987096.0.2],Conns=[wye wye wye],kvs=[7.967 0.12 0.12],kvas=[35.000000000 35.000000000 35.000000000],Taps=[1,1.000000000,1.000000000],%loadloss=1.293000000,%noloadloss=0.342857000
new transformer.1342686 Phases=1,Windings=3,Buses=[BMT161166707.2 BBT110017399.1.0 BBT110017399.0.2],Conns=[wye wye wye],kvs=[7.967 0.12 0.12],kvas=[35.000000000 35.000000000 35.000000000],Taps=[1,1.000000000,1.000000000],%loadloss=1.293000000,%noloadloss=0.342857000
new transformer.1342742 Phases=1,Windings=3,Buses=[BMT161166705.1 BBT110042767.1.0 BBT110042767.0.2],Conns=[wye wye wye],kvs=[7.967 0.12 0.12],kvas=[35.000000000 35.000000000 35.000000000],Taps=[1,1.000000000,1.000000000],%loadloss=1.293000000,%noloadloss=0.342857000
new transformer.1368572 Phases=3,Windings=2,Buses=[BMT156513254.1.2.3 BBT130129211.1.2.3.0],Conns=[delta wye],kvs=[13.8 0.22],kvas=[45.000000000 45.000000000],Taps=[1,1.000000000],%loadloss=1.522000000,%noloadloss=0.377777000
new transformer.1369104 Phases=3,Windings=2,Buses=[BMT164270097.1.2.3 BBT139036613.1.2.3.0],Conns=[delta wye],kvs=[13.8 0.22],kvas=[75.000000000 75.000000000],Taps=[1,1.000000000],%loadloss=1.340000000,%noloadloss=0.340000000
new transformer.1438554 Phases=3,Windings=2,Buses=[BMT164969739.1.2.3 BBT158858159.1.2.3.0],Conns=[delta wye],kvs=[13.8 0.22],kvas=[45.000000000 45.000000000],Taps=[1,1.000000000],%loadloss=1.522000000,%noloadloss=0.377777000
new transformer.1438555 Phases=3,Windings=2,Buses=[BMT164969737.1.2.3 BBT158858178.1.2.3.0],Conns=[delta wye],kvs=[13.8 0.22],kvas=[45.000000000 45.000000000],Taps=[1,1.000000000],%loadloss=1.522000000,%noloadloss=0.377777000
new transformer.1482269 Phases=3,Windings=2,Buses=[BMT168542537.1.2.3 BBT168542538.1.2.3.0],Conns=[delta wye],kvs=[13.8 0.22],kvas=[45.000000000 45.000000000],Taps=[1,1.000000000],%loadloss=1.522000000,%noloadloss=0.377777000
new transformer.265982 Phases=3,Windings=2,Buses=[BMT153681178.1.2.3 BBT1205718.1.2.3.0],Conns=[delta wye],kvs=[13.8 0.22],kvas=[30.000000000 30.000000000],Taps=[1,1.000000000],%loadloss=1.667000000,%noloadloss=0.433333000
new transformer.266010 Phases=3,Windings=2,Buses=[BMT128243432.1.2.3 BBT1205844.1.2.3.0],Conns=[delta wye],kvs=[13.8 0.22],kvas=[75.000000000 75.000000000],Taps=[1,1.000000000],%loadloss=1.340000000,%noloadloss=0.340000000
new transformer.266031 Phases=3,Windings=2,Buses=[BMT109916151.1.2.3 BBT1205970.1.2.3.0],Conns=[delta wye],kvs=[13.8 0.22],kvas=[45.000000000 45.000000000],Taps=[1,1.000000000],%loadloss=1.522000000,%noloadloss=0.377777000
new transformer.266087 Phases=1,Windings=3,Buses=[BMT105242195.1 BBT1206425.1.0 BBT1206425.0.2],Conns=[wye wye wye],kvs=[7.967 0.12 0.12],kvas=[15.000000000 15.000000000 15.000000000],Taps=[1,1.000000000,1.000000000],%loadloss=1.600000000,%noloadloss=0.400000000
new transformer.266094 Phases=3,Windings=2,Buses=[BMT153681174.1.2.3 BBT1206530.1.2.3.0],Conns=[delta wye],kvs=[13.8 0.22],kvas=[30.000000000 30.000000000],Taps=[1,1.000000000],%loadloss=1.667000000,%noloadloss=0.433333000
new transformer.266108 Phases=3,Windings=2,Buses=[BMT109916179.1.2.3 BBT1206628.1.2.3.0],Conns=[delta wye],kvs=[13.8 0.22],kvas=[30.000000000 30.000000000],Taps=[1,1.000000000],%loadloss=1.667000000,%noloadloss=0.433333000
new transformer.271176 Phases=3,Windings=2,Buses=[BMT156513250.1.2.3 BBT1232920.1.2.3.0],Conns=[delta wye],kvs=[13.8 0.22],kvas=[75.000000000 75.000000000],Taps=[1,1.000000000],%loadloss=1.340000000,%noloadloss=0.340000000
new transformer.271274 Phases=3,Windings=2,Buses=[BMT162325217.1.2.3 BBT1233655.1.2.3.0],Conns=[delta wye],kvs=[13.8 0.22],kvas=[75.000000000 75.000000000],Taps=[1,1.000000000],%loadloss=1.340000000,%noloadloss=0.340000000
new transformer.271288 Phases=3,Windings=2,Buses=[BMT103187261.1.2.3 BBT1233802.1.2.3.0],Conns=[delta wye],kvs=[13.8 0.22],kvas=[75.000000000 75.000000000],Taps=[1,1.000000000],%loadloss=1.340000000,%noloadloss=0.340000000
new transformer.271344 Phases=3,Windings=2,Buses=[BMT158770610.1.2.3 BBT1234166.1.2.3.0],Conns=[delta wye],kvs=[13.8 0.22],kvas=[45.000000000 45.000000000],Taps=[1,1.000000000],%loadloss=1.522000000,%noloadloss=0.377777000
new transformer.271358 Phases=1,Windings=3,Buses=[BMT154393999.1 BBT1234313.1.0 BBT1234313.0.2],Conns=[wye wye wye],kvs=[7.967 0.12 0.12],kvas=[35.000000000 35.000000000 35.000000000],Taps=[1,1.000000000,1.000000000],%loadloss=1.293000000,%noloadloss=0.342857000
new transformer.271421 Phases=3,Windings=2,Buses=[BMT156513253.1.2.3 BBT1234691.1.2.3.0],Conns=[delta wye],kvs=[13.8 0.22],kvas=[45.000000000 45.000000000],Taps=[1,1.000000000],%loadloss=1.522000000,%noloadloss=0.377777000
new transformer.271491 Phases=3,Windings=2,Buses=[BMT103187254.1.2.3 BBT1235097.1.2.3.0],Conns=[delta wye],kvs=[13.8 0.22],kvas=[45.000000000 45.000000000],Taps=[1,1.000000000],%loadloss=1.522000000,%noloadloss=0.377777000
new transformer.271743 Phases=3,Windings=2,Buses=[BMT103187310.1.2.3 BBT1236756.1.2.3.0],Conns=[delta wye],kvs=[13.8 0.22],kvas=[45.000000000 45.000000000],Taps=[1,1.000000000],%loadloss=1.522000000,%noloadloss=0.377777000
new transformer.288522 Phases=3,Windings=2,Buses=[BMT162325218.1.2.3 BBT1326706.1.2.3.0],Conns=[delta wye],kvs=[13.8 0.22],kvas=[45.000000000 45.000000000],Taps=[1,1.000000000],%loadloss=1.522000000,%noloadloss=0.377777000
new transformer.471537 Phases=3,Windings=2,Buses=[BMT103181899.1.2.3 BBT2116096.1.2.3.0],Conns=[delta wye],kvs=[13.8 0.22],kvas=[45.000000000 45.000000000],Taps=[1,1.000000000],%loadloss=1.522000000,%noloadloss=0.377777000
new transformer.471551 Phases=3,Windings=2,Buses=[BMT103181906.1.2.3 BBT2116124.1.2.3.0],Conns=[delta wye],kvs=[13.8 0.22],kvas=[45.000000000 45.000000000],Taps=[1,1.000000000],%loadloss=1.522000000,%noloadloss=0.377777000
new transformer.471558 Phases=3,Windings=2,Buses=[BMT103181948.1.2.3 BBT2116138.1.2.3.0],Conns=[delta wye],kvs=[13.8 0.22],kvas=[45.000000000 45.000000000],Taps=[1,1.000000000],%loadloss=1.522000000,%noloadloss=0.377777000
new transformer.471565 Phases=3,Windings=2,Buses=[BMT103181941.1.2.3 BBT2116152.1.2.3.0],Conns=[delta wye],kvs=[13.8 0.22],kvas=[45.000000000 45.000000000],Taps=[1,1.000000000],%loadloss=1.522000000,%noloadloss=0.377777000
new transformer.1304711 Phases=3,Windings=2,Buses=[BMT171695812.1.2.3 BBT82399683.1.2.3.0],Conns=[delta wye],kvs=[13.8 0.22],kvas=[100.000000000 100.000000000],Taps=[1,1.000000000],%loadloss=1.218000000,%noloadloss=0.335000000
new transformer.1430772 Phases=3,Windings=2,Buses=[BMT157380584.1.2.3 BBT157380587.1.2.3.0],Conns=[delta wye],kvs=[13.8 0.22],kvas=[30.000000000 30.000000000],Taps=[1,1.000000000],%loadloss=1.667000000,%noloadloss=0.433333000
new transformer.1438122 Phases=3,Windings=2,Buses=[BMT162325227.1.2.3 BBT158771823.1.2.3.0],Conns=[delta wye],kvs=[13.8 0.22],kvas=[45.000000000 45.000000000],Taps=[1,1.000000000],%loadloss=1.522000000,%noloadloss=0.377777000
new transformer.268439 Phases=3,Windings=2,Buses=[BMT103182564.1.2.3 BBT1215420.1.2.3.0],Conns=[delta wye],kvs=[13.8 0.22],kvas=[75.000000000 75.000000000],Taps=[1,1.000000000],%loadloss=1.340000000,%noloadloss=0.340000000
new transformer.268453 Phases=3,Windings=2,Buses=[BMT103182417.1.2.3 BBT1215518.1.2.3.0],Conns=[delta wye],kvs=[13.8 0.22],kvas=[45.000000000 45.000000000],Taps=[1,1.000000000],%loadloss=1.522000000,%noloadloss=0.377777000
new transformer.268467 Phases=3,Windings=2,Buses=[BMT169978145.1.2.3 BBT1215637.1.2.3.0],Conns=[delta wye],kvs=[13.8 0.22],kvas=[45.000000000 45.000000000],Taps=[1,1.000000000],%loadloss=1.522000000,%noloadloss=0.377777000
new transformer.268537 Phases=3,Windings=2,Buses=[BMT103182998.1.2.3 BBT1216253.1.2.3.0],Conns=[delta wye],kvs=[13.8 0.22],kvas=[45.000000000 45.000000000],Taps=[1,1.000000000],%loadloss=1.522000000,%noloadloss=0.377777000
new transformer.268572 Phases=3,Windings=2,Buses=[BMT103182305.1.2.3 BBT1216477.1.2.3.0],Conns=[delta wye],kvs=[13.8 0.22],kvas=[45.000000000 45.000000000],Taps=[1,1.000000000],%loadloss=1.522000000,%noloadloss=0.377777000
new transformer.268593 Phases=3,Windings=2,Buses=[BMT103183411.1.2.3 BBT1216540.1.2.3.0],Conns=[delta wye],kvs=[13.8 0.22],kvas=[75.000000000 75.000000000],Taps=[1,1.000000000],%loadloss=1.340000000,%noloadloss=0.340000000
new transformer.268635 Phases=3,Windings=2,Buses=[BMT137744581.1.2.3 BBT1216750.1.2.3.0],Conns=[delta wye],kvs=[13.8 0.22],kvas=[45.000000000 45.000000000],Taps=[1,1.000000000],%loadloss=1.522000000,%noloadloss=0.377777000
new transformer.268719 Phases=3,Windings=2,Buses=[BMT169566255.1.2.3 BBT1217345.1.2.3.0],Conns=[delta wye],kvs=[13.8 0.22],kvas=[75.000000000 75.000000000],Taps=[1,1.000000000],%loadloss=1.340000000,%noloadloss=0.340000000
new transformer.268761 Phases=3,Windings=2,Buses=[BMT103183425.1.2.3 BBT1217590.1.2.3.0],Conns=[delta wye],kvs=[13.8 0.22],kvas=[75.000000000 75.000000000],Taps=[1,1.000000000],%loadloss=1.340000000,%noloadloss=0.340000000
new transformer.268775 Phases=3,Windings=2,Buses=[BMT168542533.1.2.3 BBT1217723.1.2.3.0],Conns=[delta wye],kvs=[13.8 0.22],kvas=[30.000000000 30.000000000],Taps=[1,1.000000000],%loadloss=1.667000000,%noloadloss=0.433333000
new transformer.268789 Phases=3,Windings=2,Buses=[BMT168542535.1.2.3 BBT1217807.1.2.3.0],Conns=[delta wye],kvs=[13.8 0.22],kvas=[75.000000000 75.000000000],Taps=[1,1.000000000],%loadloss=1.340000000,%noloadloss=0.340000000
new transformer.268817 Phases=3,Windings=2,Buses=[BMT169978150.1.2.3 BBT1217982.1.2.3.0],Conns=[delta wye],kvs=[13.8 0.22],kvas=[45.000000000 45.000000000],Taps=[1,1.000000000],%loadloss=1.522000000,%noloadloss=0.377777000
new transformer.268831 Phases=1,Windings=3,Buses=[BMT170541240.1 BBT1218073.1.0 BBT1218073.0.2],Conns=[wye wye wye],kvs=[7.967 0.12 0.12],kvas=[15.000000000 15.000000000 15.000000000],Taps=[1,1.000000000,1.000000000],%loadloss=1.600000000,%noloadloss=0.400000000
new transformer.268838 Phases=3,Windings=2,Buses=[BMT167072333.1.2.3 BBT1218122.1.2.3.0],Conns=[delta wye],kvs=[13.8 0.22],kvas=[30.000000000 30.000000000],Taps=[1,1.000000000],%loadloss=1.667000000,%noloadloss=0.433333000
new transformer.268866 Phases=3,Windings=2,Buses=[BMT172594560.1.2.3 BBT1218206.1.2.3.0],Conns=[delta wye],kvs=[13.8 0.22],kvas=[75.000000000 75.000000000],Taps=[1,1.000000000],%loadloss=1.340000000,%noloadloss=0.340000000
new transformer.268873 Phases=3,Windings=2,Buses=[BMT103182487.1.2.3 BBT1218374.1.2.3.0],Conns=[delta wye],kvs=[13.8 0.22],kvas=[30.000000000 30.000000000],Taps=[1,1.000000000],%loadloss=1.667000000,%noloadloss=0.433333000
new transformer.268894 Phases=3,Windings=2,Buses=[BMT109916158.1.2.3 BBT1218465.1.2.3.0],Conns=[delta wye],kvs=[13.8 0.22],kvas=[30.000000000 30.000000000],Taps=[1,1.000000000],%loadloss=1.667000000,%noloadloss=0.433333000
new transformer.268901 Phases=3,Windings=2,Buses=[BMT103182438.1.2.3 BBT1218528.1.2.3.0],Conns=[delta wye],kvs=[13.8 0.22],kvas=[30.000000000 30.000000000],Taps=[1,1.000000000],%loadloss=1.667000000,%noloadloss=0.433333000
new transformer.274606 Phases=3,Windings=2,Buses=[BMT170940297.1.2.3 BBT1261116.1.2.3.0],Conns=[delta wye],kvs=[13.8 0.22],kvas=[45.000000000 45.000000000],Taps=[1,1.000000000],%loadloss=1.522000000,%noloadloss=0.377777000
new transformer.297454 Phases=3,Windings=2,Buses=[BMT169743334.1.2.3 BBT1350072.1.2.3.0],Conns=[delta wye],kvs=[13.8 0.22],kvas=[30.000000000 30.000000000],Taps=[1,1.000000000],%loadloss=1.667000000,%noloadloss=0.433333000
new transformer.461898 Phases=3,Windings=2,Buses=[BMT169978148.1.2.3 BBT2052655.1.2.3.0],Conns=[delta wye],kvs=[13.8 0.22],kvas=[45.000000000 45.000000000],Taps=[1,1.000000000],%loadloss=1.522000000,%noloadloss=0.377777000
new transformer.474414 Phases=3,Windings=2,Buses=[BMT169978151.1.2.3 BBT2128017.1.2.3.0],Conns=[delta wye],kvs=[13.8 0.22],kvas=[45.000000000 45.000000000],Taps=[1,1.000000000],%loadloss=1.522000000,%noloadloss=0.377777000
new transformer.269692 Phases=3,Windings=2,Buses=[BMT172010596.1.2.3 BBT1223253.1.2.3.0],Conns=[delta wye],kvs=[13.8 0.22],kvas=[30.000000000 30.000000000],Taps=[1,1.000000000],%loadloss=1.667000000,%noloadloss=0.433333000
new transformer.274795 Phases=3,Windings=2,Buses=[BMT170940294.1.2.3 BBT1263335.1.2.3.0],Conns=[delta wye],kvs=[13.8 0.22],kvas=[100.000000000 100.000000000],Taps=[1,1.000000000],%loadloss=1.218000000,%noloadloss=0.335000000
new transformer.274816 Phases=3,Windings=2,Buses=[BMT164270096.1.2.3 BBT1263447.1.2.3.0],Conns=[delta wye],kvs=[13.8 0.22],kvas=[75.000000000 75.000000000],Taps=[1,1.000000000],%loadloss=1.340000000,%noloadloss=0.340000000
new transformer.505466 Phases=3,Windings=2,Buses=[BMT171695801.1.2.3 BBT2258336.1.2.3.0],Conns=[delta wye],kvs=[13.8 0.22],kvas=[75.000000000 75.000000000],Taps=[1,1.000000000],%loadloss=1.340000000,%noloadloss=0.340000000
new transformer.517226 Phases=3,Windings=2,Buses=[BMT171679204.1.2.3 BBT2338871.1.2.3.0],Conns=[delta wye],kvs=[13.8 0.22],kvas=[100.000000000 100.000000000],Taps=[1,1.000000000],%loadloss=1.218000000,%noloadloss=0.335000000
new transformer.270357 Phases=3,Windings=2,Buses=[BMT103184468.1.2.3 BBT1227271.1.2.3.0],Conns=[delta wye],kvs=[13.8 0.22],kvas=[30.000000000 30.000000000],Taps=[1,1.000000000],%loadloss=1.667000000,%noloadloss=0.433333000
new transformer.270371 Phases=3,Windings=2,Buses=[BMT164593616.1.2.3 BBT1227397.1.2.3.0],Conns=[delta wye],kvs=[13.8 0.22],kvas=[100.000000000 100.000000000],Taps=[1,1.000000000],%loadloss=1.218000000,%noloadloss=0.335000000
new transformer.293576 Phases=3,Windings=2,Buses=[BMT153681171.1.2.3 BBT1340370.1.2.3.0],Conns=[delta wye],kvs=[13.8 0.22],kvas=[45.000000000 45.000000000],Taps=[1,1.000000000],%loadloss=1.522000000,%noloadloss=0.377777000
new transformer.313428 Phases=3,Windings=2,Buses=[BMT156513261.1.2.3 BBT1393031.1.2.3.0],Conns=[delta wye],kvs=[13.8 0.22],kvas=[45.000000000 45.000000000],Taps=[1,1.000000000],%loadloss=1.522000000,%noloadloss=0.377777000
new transformer.471803 Phases=3,Windings=2,Buses=[BMT103182494.1.2.3 BBT2117496.1.2.3.0],Conns=[delta wye],kvs=[13.8 0.22],kvas=[45.000000000 45.000000000],Taps=[1,1.000000000],%loadloss=1.522000000,%noloadloss=0.377777000
new transformer.1347677 Phases=3,Windings=2,Buses=[BMT113436598.1.2.3 BBT113432174.1.2.3.0],Conns=[delta wye],kvs=[13.8 0.22],kvas=[45.000000000 45.000000000],Taps=[1,1.000000000],%loadloss=1.522000000,%noloadloss=0.377777000
new transformer.267270 Phases=3,Windings=2,Buses=[BMT153681177.1.2.3 BBT1211143.1.2.3.0],Conns=[delta wye],kvs=[13.8 0.22],kvas=[30.000000000 30.000000000],Taps=[1,1.000000000],%loadloss=1.667000000,%noloadloss=0.433333000
new transformer.267585 Phases=1,Windings=3,Buses=[BMT153681172.3 BBT1212277.1.0 BBT1212277.0.2],Conns=[wye wye wye],kvs=[7.967 0.12 0.12],kvas=[35.000000000 35.000000000 35.000000000],Taps=[1,1.000000000,1.000000000],%loadloss=1.293000000,%noloadloss=0.342857000
new transformer.271827 Phases=3,Windings=2,Buses=[BMT156513257.1.2.3 BBT1237568.1.2.3.0],Conns=[delta wye],kvs=[13.8 0.22],kvas=[75.000000000 75.000000000],Taps=[1,1.000000000],%loadloss=1.340000000,%noloadloss=0.340000000
new transformer.271876 Phases=3,Windings=2,Buses=[BMT103184524.1.2.3 BBT1237883.1.2.3.0],Conns=[delta wye],kvs=[13.8 0.22],kvas=[45.000000000 45.000000000],Taps=[1,1.000000000],%loadloss=1.522000000,%noloadloss=0.377777000
new transformer.271974 Phases=3,Windings=2,Buses=[BMT103187247.1.2.3 BBT1238436.1.2.3.0],Conns=[delta wye],kvs=[13.8 0.22],kvas=[30.000000000 30.000000000],Taps=[1,1.000000000],%loadloss=1.667000000,%noloadloss=0.433333000
new transformer.271988 Phases=1,Windings=3,Buses=[BMT154394001.1 BBT1238569.1.0 BBT1238569.0.2],Conns=[wye wye wye],kvs=[7.967 0.12 0.12],kvas=[35.000000000 35.000000000 35.000000000],Taps=[1,1.000000000,1.000000000],%loadloss=1.293000000,%noloadloss=0.342857000
new transformer.272009 Phases=1,Windings=3,Buses=[BMT154393996.1 BBT1238779.1.0 BBT1238779.0.2],Conns=[wye wye wye],kvs=[7.967 0.12 0.12],kvas=[25.000000000 25.000000000 25.000000000],Taps=[1,1.000000000,1.000000000],%loadloss=1.420000000,%noloadloss=0.320000000
new transformer.272058 Phases=1,Windings=3,Buses=[BMT150679059.2 BBT1239143.1.0 BBT1239143.0.2],Conns=[wye wye wye],kvs=[7.967 0.12 0.12],kvas=[15.000000000 15.000000000 15.000000000],Taps=[1,1.000000000,1.000000000],%loadloss=1.600000000,%noloadloss=0.400000000
new transformer.272065 Phases=3,Windings=2,Buses=[BMT165461755.1.2.3 BBT1239290.1.2.3.0],Conns=[delta wye],kvs=[13.8 0.22],kvas=[75.000000000 75.000000000],Taps=[1,1.000000000],%loadloss=1.340000000,%noloadloss=0.340000000
new transformer.272219 Phases=1,Windings=3,Buses=[BMT154393997.1 BBT1239892.1.0 BBT1239892.0.2],Conns=[wye wye wye],kvs=[7.967 0.12 0.12],kvas=[25.000000000 25.000000000 25.000000000],Taps=[1,1.000000000,1.000000000],%loadloss=1.420000000,%noloadloss=0.320000000
new transformer.272310 Phases=3,Windings=2,Buses=[BMT165461752.1.2.3 BBT1240564.1.2.3.0],Conns=[delta wye],kvs=[13.8 0.22],kvas=[75.000000000 75.000000000],Taps=[1,1.000000000],%loadloss=1.340000000,%noloadloss=0.340000000
new transformer.272338 Phases=1,Windings=3,Buses=[BMT154394000.1 BBT1240823.1.0 BBT1240823.0.2],Conns=[wye wye wye],kvs=[7.967 0.12 0.12],kvas=[25.000000000 25.000000000 25.000000000],Taps=[1,1.000000000,1.000000000],%loadloss=1.420000000,%noloadloss=0.320000000
new transformer.272443 Phases=3,Windings=2,Buses=[BMT164969746.1.2.3 BBT1241614.1.2.3.0],Conns=[delta wye],kvs=[13.8 0.22],kvas=[75.000000000 75.000000000],Taps=[1,1.000000000],%loadloss=1.340000000,%noloadloss=0.340000000
new transformer.312245 Phases=3,Windings=2,Buses=[BMT164270095.1.2.3 BBT1390245.1.2.3.0],Conns=[delta wye],kvs=[13.8 0.22],kvas=[45.000000000 45.000000000],Taps=[1,1.000000000],%loadloss=1.522000000,%noloadloss=0.377777000
new transformer.1400973 Phases=3,Windings=2,Buses=[BMT162325231.1.2.3 BBT150669288.1.2.3.0],Conns=[delta wye],kvs=[13.8 0.22],kvas=[45.000000000 45.000000000],Taps=[1,1.000000000],%loadloss=1.522000000,%noloadloss=0.377777000
new transformer.1400978 Phases=3,Windings=2,Buses=[BMT162325232.1.2.3 BBT150670297.1.2.3.0],Conns=[delta wye],kvs=[13.8 0.22],kvas=[45.000000000 45.000000000],Taps=[1,1.000000000],%loadloss=1.522000000,%noloadloss=0.377777000
new transformer.1400989 Phases=3,Windings=2,Buses=[BMT162325233.1.2.3 BBT150672278.1.2.3.0],Conns=[delta wye],kvs=[13.8 0.22],kvas=[75.000000000 75.000000000],Taps=[1,1.000000000],%loadloss=1.340000000,%noloadloss=0.340000000
new transformer.1409956 Phases=3,Windings=2,Buses=[BMT152825186.1.2.3 BBT152825187.1.2.3.0],Conns=[delta wye],kvs=[13.8 0.22],kvas=[45.000000000 45.000000000],Taps=[1,1.000000000],%loadloss=1.522000000,%noloadloss=0.377777000
new transformer.1498473 Phases=3,Windings=2,Buses=[BMT171679207.1.2.3 BBT171679208.1.2.3.0],Conns=[delta wye],kvs=[13.8 0.22],kvas=[45.000000000 45.000000000],Taps=[1,1.000000000],%loadloss=1.522000000,%noloadloss=0.377777000
new transformer.268033 Phases=3,Windings=2,Buses=[BMT113436591.1.2.3 BBT1213761.1.2.3.0],Conns=[delta wye],kvs=[13.8 0.22],kvas=[45.000000000 45.000000000],Taps=[1,1.000000000],%loadloss=1.522000000,%noloadloss=0.377777000
new transformer.268145 Phases=3,Windings=2,Buses=[BMT113436605.1.2.3 BBT1214328.1.2.3.0],Conns=[delta wye],kvs=[13.8 0.22],kvas=[30.000000000 30.000000000],Taps=[1,1.000000000],%loadloss=1.667000000,%noloadloss=0.433333000
new transformer.273227 Phases=3,Windings=2,Buses=[BMT164969743.1.2.3 BBT1247277.1.2.3.0],Conns=[delta wye],kvs=[13.8 0.22],kvas=[45.000000000 45.000000000],Taps=[1,1.000000000],%loadloss=1.522000000,%noloadloss=0.377777000
new transformer.273234 Phases=3,Windings=2,Buses=[BMT103187240.1.2.3 BBT1247326.1.2.3.0],Conns=[delta wye],kvs=[13.8 0.22],kvas=[75.000000000 75.000000000],Taps=[1,1.000000000],%loadloss=1.340000000,%noloadloss=0.340000000
new transformer.273311 Phases=3,Windings=2,Buses=[BMT170586503.1.2.3 BBT1248061.1.2.3.0],Conns=[delta wye],kvs=[13.8 0.22],kvas=[75.000000000 75.000000000],Taps=[1,1.000000000],%loadloss=1.340000000,%noloadloss=0.340000000
new transformer.273332 Phases=3,Windings=2,Buses=[BMT164969741.1.2.3 BBT1248397.1.2.3.0],Conns=[delta wye],kvs=[13.8 0.22],kvas=[30.000000000 30.000000000],Taps=[1,1.000000000],%loadloss=1.667000000,%noloadloss=0.433333000
new transformer.273409 Phases=3,Windings=2,Buses=[BMT103187499.1.2.3 BBT1249265.1.2.3.0],Conns=[delta wye],kvs=[13.8 0.22],kvas=[30.000000000 30.000000000],Taps=[1,1.000000000],%loadloss=1.667000000,%noloadloss=0.433333000
new transformer.273472 Phases=3,Windings=2,Buses=[BMT103184671.1.2.3 BBT1249755.1.2.3.0],Conns=[delta wye],kvs=[13.8 0.22],kvas=[30.000000000 30.000000000],Taps=[1,1.000000000],%loadloss=1.667000000,%noloadloss=0.433333000
new transformer.273780 Phases=3,Windings=2,Buses=[BMT170586501.1.2.3 BBT1252758.1.2.3.0],Conns=[delta wye],kvs=[13.8 0.22],kvas=[45.000000000 45.000000000],Taps=[1,1.000000000],%loadloss=1.522000000,%noloadloss=0.377777000
new transformer.288956 Phases=3,Windings=2,Buses=[BMT109916123.1.2.3 BBT1328855.1.2.3.0],Conns=[delta wye],kvs=[13.8 0.22],kvas=[30.000000000 30.000000000],Taps=[1,1.000000000],%loadloss=1.667000000,%noloadloss=0.433333000
new transformer.294857 Phases=1,Windings=3,Buses=[BMT103183712.1 BBT1343499.1.0 BBT1343499.0.2],Conns=[wye wye wye],kvs=[7.967 0.12 0.12],kvas=[15.000000000 15.000000000 15.000000000],Taps=[1,1.000000000,1.000000000],%loadloss=1.600000000,%noloadloss=0.400000000
new transformer.294871 Phases=1,Windings=3,Buses=[BMT103183691.1 BBT1343527.1.0 BBT1343527.0.2],Conns=[wye wye wye],kvs=[7.967 0.12 0.12],kvas=[15.000000000 15.000000000 15.000000000],Taps=[1,1.000000000,1.000000000],%loadloss=1.600000000,%noloadloss=0.400000000
new transformer.294885 Phases=1,Windings=3,Buses=[BMT103183698.1 BBT1343555.1.0 BBT1343555.0.2],Conns=[wye wye wye],kvs=[7.967 0.12 0.12],kvas=[15.000000000 15.000000000 15.000000000],Taps=[1,1.000000000,1.000000000],%loadloss=1.600000000,%noloadloss=0.400000000
new transformer.294892 Phases=1,Windings=3,Buses=[BMT103183677.1 BBT1343569.1.0 BBT1343569.0.2],Conns=[wye wye wye],kvs=[7.967 0.12 0.12],kvas=[15.000000000 15.000000000 15.000000000],Taps=[1,1.000000000,1.000000000],%loadloss=1.600000000,%noloadloss=0.400000000
new transformer.294899 Phases=3,Windings=2,Buses=[BMT172511333.1.2.3 BBT1343583.1.2.3.0],Conns=[delta wye],kvs=[13.8 0.22],kvas=[30.000000000 30.000000000],Taps=[1,1.000000000],%loadloss=1.667000000,%noloadloss=0.433333000
new transformer.575970 Phases=1,Windings=3,Buses=[BMT103183719.1 BBT3027328.1.0 BBT3027328.0.2],Conns=[wye wye wye],kvs=[7.967 0.12 0.12],kvas=[15.000000000 15.000000000 15.000000000],Taps=[1,1.000000000,1.000000000],%loadloss=1.600000000,%noloadloss=0.400000000
new transformer.471579 Phases=3,Windings=2,Buses=[BMT103181955.1.2.3 BBT2116180.1.2.3.0],Conns=[delta wye],kvs=[13.8 0.22],kvas=[30.000000000 30.000000000],Taps=[1,1.000000000],%loadloss=1.667000000,%noloadloss=0.433333000
new transformer.621750 Phases=1,Windings=3,Buses=[BMT103184531.2 BBT3752094.1.0 BBT3752094.0.2],Conns=[wye wye wye],kvs=[7.967 0.12 0.12],kvas=[35.000000000 35.000000000 35.000000000],Taps=[1,1.000000000,1.000000000],%loadloss=1.293000000,%noloadloss=0.342857000
new transformer.635183 Phases=1,Windings=3,Buses=[BMT150679060.2 BBT4581923.1.0 BBT4581923.0.2],Conns=[wye wye wye],kvs=[7.967 0.12 0.12],kvas=[15.000000000 15.000000000 15.000000000],Taps=[1,1.000000000,1.000000000],%loadloss=1.600000000,%noloadloss=0.400000000
new transformer.635197 Phases=3,Windings=2,Buses=[BMT162325225.1.2.3 BBT4582035.1.2.3.0],Conns=[delta wye],kvs=[13.8 0.22],kvas=[45.000000000 45.000000000],Taps=[1,1.000000000],%loadloss=1.522000000,%noloadloss=0.377777000
new transformer.635204 Phases=1,Windings=3,Buses=[BMT162325228.2 BBT4582434.1.0 BBT4582434.0.2],Conns=[wye wye wye],kvs=[7.967 0.12 0.12],kvas=[35.000000000 35.000000000 35.000000000],Taps=[1,1.000000000,1.000000000],%loadloss=1.293000000,%noloadloss=0.342857000
new transformer.516435 Phases=3,Windings=2,Buses=[BMT169743341.1.2.3 BBT2329463.1.2.3.0],Conns=[delta wye],kvs=[13.8 0.22],kvas=[45.000000000 45.000000000],Taps=[1,1.000000000],%loadloss=1.522000000,%noloadloss=0.377777000
new transformer.516442 Phases=3,Windings=2,Buses=[BMT169743338.1.2.3 BBT2329554.1.2.3.0],Conns=[delta wye],kvs=[13.8 0.22],kvas=[45.000000000 45.000000000],Taps=[1,1.000000000],%loadloss=1.522000000,%noloadloss=0.377777000
new transformer.545009 Phases=3,Windings=2,Buses=[BMT162325223.1.2.3 BBT2614027.1.2.3.0],Conns=[delta wye],kvs=[13.8 0.22],kvas=[75.000000000 75.000000000],Taps=[1,1.000000000],%loadloss=1.340000000,%noloadloss=0.340000000
new transformer.614757 Phases=3,Windings=2,Buses=[BMT103182410.1.2.3 BBT3444206.1.2.3.0],Conns=[delta wye],kvs=[13.8 0.22],kvas=[45.000000000 45.000000000],Taps=[1,1.000000000],%loadloss=1.522000000,%noloadloss=0.377777000
new transformer.308402 Phases=3,Windings=2,Buses=[BMT103182907.1.2.3 BBT1376896.1.2.3.0],Conns=[delta wye],kvs=[13.8 0.22],kvas=[75.000000000 75.000000000],Taps=[1,1.000000000],%loadloss=1.340000000,%noloadloss=0.340000000
new transformer.308430 Phases=3,Windings=2,Buses=[BMT164969744.1.2.3 BBT1376980.1.2.3.0],Conns=[delta wye],kvs=[13.8 0.22],kvas=[150.000000000 150.000000000],Taps=[1,1.000000000],%loadloss=1.127000000,%noloadloss=0.280000000
new transformer.460981 Phases=1,Windings=3,Buses=[BMT157954726.2 BBT2048791.1.0 BBT2048791.0.2],Conns=[wye wye wye],kvs=[7.967 0.12 0.12],kvas=[35.000000000 35.000000000 35.000000000],Taps=[1,1.000000000,1.000000000],%loadloss=1.293000000,%noloadloss=0.342857000
new transformer.1351072 Phases=1,Windings=3,Buses=[BMT119894070.3 BBT116088786.1.0 BBT116088786.0.2],Conns=[wye wye wye],kvs=[7.967 0.12 0.12],kvas=[35.000000000 35.000000000 35.000000000],Taps=[1,1.000000000,1.000000000],%loadloss=1.293000000,%noloadloss=0.342857000
new transformer.1393542 Phases=3,Windings=2,Buses=[BMT165087154.1.2.3 BBT148849370.1.2.3.0],Conns=[delta wye],kvs=[13.8 0.22],kvas=[45.000000000 45.000000000],Taps=[1,1.000000000],%loadloss=1.522000000,%noloadloss=0.377777000
new transformer.1432628 Phases=3,Windings=2,Buses=[BMT165087156.1.2.3 BBT157734537.1.2.3.0],Conns=[delta wye],kvs=[13.8 0.22],kvas=[150.000000000 150.000000000],Taps=[1,1.000000000],%loadloss=1.127000000,%noloadloss=0.280000000
...
