2024_89_CemigReconfigurationCases/1_AlimsCemig/SSP06/SSP06SegmentosBT.dss
new line.13641461 bus1=BBT4581874.1.2.0,bus2=BBT4581881.1.2.0,Phases=2,Linecode=BT808_BT808_4_2_3,Length=0.041432000,Units=km
new line.13641531 bus1=BBT4581958.1.2.0,bus2=BBT4581965.1.2.0,Phases=2,Linecode=BT808_BT808_4_2_3,Length=0.022020000,Units=km
new line.13641545 bus1=BBT4581951.1.2.0,bus2=BBT4581958.1.2.0,Phases=2,Linecode=BT808_BT808_4_2_3,Length=0.034925000,Units=km
new line.13641566 bus1=BBT4581944.1.2.0,bus2=BBT4581951.1.2.0,Phases=2,Linecode=BT808_BT808_4_2_3,Length=0.034925000,Units=km
new line.13641573 bus1=BBT4582007.1.2.3.0,bus2=BBT158771996.1.2.3.0,Phases=3,Linecode=BT803_BT803_4_3_4,Length=0.031777000,Units=km
new line.13641587 bus1=BBT4582014.1.2.3.0,bus2=BBT4582007.1.2.3.0,Phases=3,Linecode=BT803_BT803_4_3_4,Length=0.032753000,Units=km
new line.13641608 bus1=BBT4582175.1.2.3.0,bus2=BBT4582014.1.2.3.0,Phases=3,Linecode=BT803_BT803_4_3_4,Length=0.039807000,Units=km
new line.13641636 bus1=BBT4581937.1.2.0,bus2=BBT4581944.1.2.0,Phases=2,Linecode=BT807_BT807_4_2_3,Length=0.010816000,Units=km
new line.13641657 bus1=BBT4581930.1.2.0,bus2=BBT4581937.1.2.0,Phases=2,Linecode=BT807_BT807_4_2_3,Length=0.039454000,Units=km
new line.13641664 bus1=BBT4581923.1.2.0,bus2=BBT4581930.1.2.0,Phases=2,Linecode=BT518_BT518_7_2_1,Length=0.000500000,Units=km
new line.13641671 bus1=BBT4581930.1.2.0,bus2=BBT4581972.1.2.0,Phases=2,Linecode=BT807_BT807_4_2_3,Length=0.031777000,Units=km
new line.13641713 bus1=BBT4581979.1.2.0,bus2=BBT4581986.1.2.0,Phases=2,Linecode=BT808_BT808_4_2_3,Length=0.040443000,Units=km
new line.13641720 bus1=BBT4581986.1.2.0,bus2=BBT150679477.1.2.0,Phases=2,Linecode=BT808_BT808_4_2_3,Length=0.038635000,Units=km
new line.13641741 bus1=BBT117227483.1.2.3.0,bus2=BBT4582000.1.2.3.0,Phases=3,Linecode=BT803_BT803_4_3_4,Length=0.023192000,Units=km
new line.13641776 bus1=BBT4582049.1.2.3.0,bus2=BBT4582063.1.2.3.0,Phases=3,Linecode=BT810_BT810_4_3_4,Length=0.041007000,Units=km
new line.13641783 bus1=BBT4582049.1.2.3.0,bus2=BBT4582266.1.2.3.0,Phases=3,Linecode=BT803_BT803_4_3_4,Length=0.022201000,Units=km
new line.13641804 bus1=BBT4582126.1.2.3.0,bus2=BBT4582154.1.2.3.0,Phases=3,Linecode=BT803_BT803_4_3_4,Length=0.036793000,Units=km
new line.13641818 bus1=BBT4582042.1.2.3.0,bus2=BBT4582126.1.2.3.0,Phases=3,Linecode=BT803_BT803_4_3_4,Length=0.032646000,Units=km
new line.13641825 bus1=BBT4582035.1.2.3.0,bus2=BBT4582042.1.2.3.0,Phases=3,Linecode=BT521_BT521_7_3_1,Length=0.000500000,Units=km
new line.13641832 bus1=BBT4582042.1.2.3.0,bus2=BBT4582133.1.2.3.0,Phases=3,Linecode=BT803_BT803_4_3_4,Length=0.032646000,Units=km
new line.13641853 bus1=BBT4582133.1.2.3.0,bus2=BBT4582140.1.2.3.0,Phases=3,Linecode=BT803_BT803_4_3_4,Length=0.031301000,Units=km
new line.13641874 bus1=BBT4582140.1.2.3.0,bus2=BBT4582301.1.2.3.0,Phases=3,Linecode=BT803_BT803_4_3_4,Length=0.024039000,Units=km
new line.13642000 bus1=BBT4582154.1.2.3.0,bus2=BBT4582161.1.2.3.0,Phases=3,Linecode=BT810_BT810_4_3_4,Length=0.028068000,Units=km
new line.13642007 bus1=BBT4582154.1.2.3.0,bus2=BBT4582406.1.2.3.0,Phases=3,Linecode=BT810_BT810_4_3_4,Length=0.042043000,Units=km
new line.13642028 bus1=BBT4582014.1.2.3.0,bus2=BBT158771971.1.2.3.0,Phases=3,Linecode=BT803_BT803_4_3_4,Length=0.037732000,Units=km
new line.13642042 bus1=BBT4582175.1.2.3.0,bus2=BBT4582182.1.2.3.0,Phases=3,Linecode=BT803_BT803_4_3_4,Length=0.037652000,Units=km
new line.13642063 bus1=BBT4582231.1.2.3.0,bus2=BBT4582238.1.2.3.0,Phases=3,Linecode=BT810_BT810_4_3_4,Length=0.038893000,Units=km
new line.13642084 bus1=BBT4582224.1.2.3.0,bus2=BBT4582231.1.2.3.0,Phases=3,Linecode=BT810_BT810_4_3_4,Length=0.039619000,Units=km
new line.13642105 bus1=BBT4582217.1.2.3.0,bus2=BBT4582224.1.2.3.0,Phases=3,Linecode=BT810_BT810_4_3_4,Length=0.031238000,Units=km
new line.13642126 bus1=BBT4582203.1.2.3.0,bus2=BBT4582217.1.2.3.0,Phases=3,Linecode=BT810_BT810_4_3_4,Length=0.030867000,Units=km
new line.13642133 bus1=BBT4582203.1.2.3.0,bus2=BBT4582210.1.2.3.0,Phases=3,Linecode=BT810_BT810_4_3_4,Length=0.040443000,Units=km
new line.13642175 bus1=BBT4582196.1.2.3.0,bus2=BBT4582203.1.2.3.0,Phases=3,Linecode=BT810_BT810_4_3_4,Length=0.007810000,Units=km
new line.13642189 bus1=BBT4582189.1.2.3.0,bus2=BBT4582196.1.2.3.0,Phases=3,Linecode=BT810_BT810_4_3_4,Length=0.033238000,Units=km
new line.13642259 bus1=BBT4582287.1.2.3.0,bus2=BBT4582294.1.2.3.0,Phases=3,Linecode=BT810_BT810_4_3_4,Length=0.034521000,Units=km
new line.13642294 bus1=BBT4582280.1.2.3.0,bus2=BBT4582287.1.2.3.0,Phases=3,Linecode=BT810_BT810_4_3_4,Length=0.035507000,Units=km
new line.13642315 bus1=BBT4582273.1.2.3.0,bus2=BBT4582280.1.2.3.0,Phases=3,Linecode=BT810_BT810_4_3_4,Length=0.033537000,Units=km
new line.13642329 bus1=BBT4582266.1.2.3.0,bus2=BBT4582273.1.2.3.0,Phases=3,Linecode=BT803_BT803_4_3_4,Length=0.030591000,Units=km
new line.13642371 bus1=BBT4582315.1.2.3.0,bus2=BBT4582322.1.2.3.0,Phases=3,Linecode=BT810_BT810_4_3_4,Length=0.041768000,Units=km
...